Info: SIMULATION PARAMETERS:
Info: TIMESTEP               2
Info: NUMBER OF STEPS        0
Info: STEPS PER CYCLE        20
Info: PERIODIC CELL BASIS 1  44.2525 0 0
Info: PERIODIC CELL BASIS 2  0 55.5696 0
Info: PERIODIC CELL BASIS 3  0 0 104.296
Info: PERIODIC CELL CENTER   0.203575 0.535242 2.84572
Info: WRAPPING WATERS AROUND PERIODIC BOUNDARIES ON OUTPUT.
Info: WRAPPING ALL CLUSTERS AROUND PERIODIC BOUNDARIES ON OUTPUT.
Info: FIRST LDB TIMESTEP     100
Info: LAST LDB TIMESTEP     -1
Info: HOM BACKGROUND SCALING 1
Info: PME BACKGROUND SCALING 1
Info: MIN ATOMS PER PATCH    40
Info: INITIAL TEMPERATURE    298
Info: CENTER OF MASS MOVING INITIALLY? NO
Info: DIELECTRIC             1
Info: EXCLUDE                SCALED ONE-FOUR
Info: 1-4 ELECTROSTATICS SCALED BY 1
Info: MODIFIED 1-4 VDW PARAMETERS WILL BE USED
Info: DCD FILENAME           12/Pre12_0.dcd
Info: DCD FREQUENCY          1000
Info: DCD FIRST STEP         1000
Info: DCD FILE WILL CONTAIN UNIT CELL DATA
Info: NO EXTENDED SYSTEM TRAJECTORY OUTPUT
Info: NO VELOCITY DCD OUTPUT
Info: NO FORCE DCD OUTPUT
Info: OUTPUT FILENAME        12/Pre12_0
Info: BINARY OUTPUT FILES WILL BE USED
Info: NO RESTART FILE
Info: SWITCHING ACTIVE
Info: VDW FORCE SWITCHING ACTIVE
Info: SWITCHING ON           10
Info: SWITCHING OFF          12
Info: PAIRLIST DISTANCE      14
Info: PAIRLIST SHRINK RATE   0.01
Info: PAIRLIST GROW RATE     0.01
Info: PAIRLIST TRIGGER       0.3
Info: PAIRLISTS PER CYCLE    2
Info: PAIRLISTS ENABLED
Info: MARGIN                 2
Info: HYDROGEN GROUP CUTOFF  2.5
Info: PATCH DIMENSION        18.5
Info: ENERGY OUTPUT STEPS    1000
Info: CROSSTERM ENERGY INCLUDED IN DIHEDRAL
Info: TIMING OUTPUT STEPS    10000
Info: THERMODYNAMIC INTEGRATION (TI) ON
Info: TI LAMBDA VALUE     0
Info: TI INTRA-ALCHEMICAL NON-BONDED INTERACTIONS WILL BE DECOUPLED
Info: TI INTRA-ALCHEMICAL BONDED INTERACTIONS WILL BE DECOUPLED
Info: TI VDW SHIFTING COEFFICIENT 0
Info: TI ELEC. ACTIVE FOR ANNIHILATED PARTICLES BETWEEN LAMBDA = 0 AND LAMBDA = 1
Info: TI ELEC. ACTIVE FOR EXNIHILATED PARTICLES BETWEEN LAMBDA = 0 AND LAMBDA = 1
Info: TI VDW ACTIVE FOR ANNIHILATED PARTICLES BETWEEN LAMBDA = 0 AND LAMBDA = 1
Info: TI VDW ACTIVE FOR EXNIHILATED PARTICLES BETWEEN LAMBDA = 0 AND LAMBDA = 1
Info: TI BOND ACTIVE FOR ANNIHILATED PARTICLES BETWEEN LAMBDA = 0 AND LAMBDA = 1
Info: TI BOND ACTIVE FOR EXNIHILATED PARTICLES BETWEEN LAMBDA = 0 AND LAMBDA = 1
Info: LANGEVIN DYNAMICS ACTIVE
Info: LANGEVIN TEMPERATURE   298
Info: LANGEVIN USING BBK INTEGRATOR
Info: LANGEVIN DAMPING COEFFICIENT IS 1 INVERSE PS
Info: LANGEVIN DYNAMICS NOT APPLIED TO HYDROGENS
Info: PARTICLE MESH EWALD (PME) ACTIVE
Info: PME TOLERANCE               1e-06
Info: PME EWALD COEFFICIENT       0.257952
Info: PME INTERPOLATION ORDER     4
Info: PME GRID DIMENSIONS         48 56 108
Info: PME MAXIMUM GRID SPACING    1
Info: FULL ELECTROSTATIC EVALUATION FREQUENCY      2
Info: USING VERLET I (r-RESPA) MTS SCHEME.
Info: C1 SPLITTING OF LONG RANGE ELECTROSTATICS
Info: PLACING ATOMS IN PATCHES BY HYDROGEN GROUPS
Info: RIGID BONDS TO HYDROGEN : ALL
Info:         ERROR TOLERANCE : 1e-08
Info:          MAX ITERATIONS : 100
Info: RIGID WATER USING SETTLE ALGORITHM
Info: RANDOM NUMBER SEED     1689579478
Info: USE HYDROGEN BONDS?    NO
Info: COORDINATE PDB         ../topology/preD936H.pdb
Info: STRUCTURE FILE         ../topology/preD936H.psf
Info: PARAMETER file: CHARMM format!
Info: PARAMETERS             ../../toppar/par_all36_carb.prm
Info: PARAMETERS             ../../toppar/par_all36_cgenff.prm
Info: PARAMETERS             ../../toppar/par_all36_lipid.prm
Info: PARAMETERS             ../../toppar/par_all36_na.prm
Info: PARAMETERS             ../../toppar/par_all36_prot.prm
Info: PARAMETERS             ../../toppar/par_all36_solvent.prm
Info: PARAMETERS             ../../toppar/par_cph36_prot.prm
Info: PARAMETERS             ../../toppar/toppar_all36_carb_glycopeptide.str
Info: PARAMETERS             ../../toppar/toppar_water_ions_namd.str
Info: USING ARITHMETIC MEAN TO COMBINE L-J SIGMA PARAMETERS
Info: SKIPPING rtf SECTION IN STREAM FILE
Info: SKIPPING rtf SECTION IN STREAM FILE
Info: SUMMARY OF PARAMETERS:
Info: 925 BONDS
Info: 2696 ANGLES
Info: 6608 DIHEDRAL
Info: 195 IMPROPER
Info: 6 CROSSTERM
Info: 366 VDW
Info: 6 VDW_PAIRS
Info: 0 NBTHOLE_PAIRS
Info: READING EXTRA BONDS FILE 12/namdcph.sw.extrabonds
Info: To read alchdata from file: coordinate pdb file (default)
Info: To read alchflag data from column: 5
Info: LONG-RANGE LJ: APPLYING ANALYTICAL CORRECTIONS TO ENERGY AND PRESSURE
Info: LONG-RANGE LJ: AVERAGE A0 AND B0 COEFFICIENTS 70982 AND 74.603
Info: LONG-RANGE LJ: AVERAGE A1 AND B1 COEFFICIENTS 70982 AND 74.603
Info: STRUCTURE SUMMARY:
Info: 25959 ATOMS
Info: 17562 BONDS
Info: 9911 ANGLES
Info: 2266 DIHEDRALS
Info: 179 IMPROPERS
Info: 54 CROSSTERMS
Info: 0 EXCLUSIONS
Info: 25484 RIGID BONDS
Info: ALCH: 0 ATOMS TO DISAPPEAR IN FINAL STATE
Info: ALCH: 0 ATOMS TO APPEAR IN FINAL STATE
Info: 52393 DEGREES OF FREEDOM
Info: 8824 HYDROGEN GROUPS
Info: 4 ATOMS IN LARGEST HYDROGEN GROUP
Info: 8824 MIGRATION GROUPS
Info: 4 ATOMS IN LARGEST MIGRATION GROUP
Info: TOTAL MASS = 157926 amu
Info: TOTAL CHARGE = 4.24683e-07 e
Info: MASS DENSITY = 1.02252 g/cm^3
Info: ATOM DENSITY = 0.101215 atoms/A^3
Info: ADDED 29728 IMPLICIT EXCLUSIONS
Info: NONBONDED TABLE R-SQUARED SPACING: 0.0625
Info: NONBONDED TABLE SIZE: 769 POINTS
Info: REMOVING COM VELOCITY 0.0555134 -0.0151055 0.0148866
TCL: Setting parameter alchLambdaFreq to 1
Info: NONBONDED TABLE R-SQUARED SPACING: 0.0625
Info: NONBONDED TABLE SIZE: 769 POINTS
TCL: Setting parameter alch to off
Info: NONBONDED TABLE R-SQUARED SPACING: 0.0625
Info: NONBONDED TABLE SIZE: 769 POINTS
TCL: namdcph) initializing constant pH PSF...
TCL: aliasing PP1:936:HSD to HIS
TCL: WARNING! Building new atom PP1:918:HE1 with unknown mass.
TCL:          This may cause issues, for example, with mass repartitioning.
TCL: WARNING! Building new atom PP1:918:HE2 with unknown mass.
TCL:          This may cause issues, for example, with mass repartitioning.
TCL: WARNING! Building new atom PP1:936:HE2 with unknown mass.
TCL:          This may cause issues, for example, with mass repartitioning.
TCL: WARNING! Building new atom PP1:950:HD1 with unknown mass.
TCL:          This may cause issues, for example, with mass repartitioning.
TCL: WARNING! Building new atom PP1:950:HD2 with unknown mass.
TCL:          This may cause issues, for example, with mass repartitioning.
TCL: cphpsfgen) creating new alchemical side chain for PP1:918:GLU
TCL: cphpsfgen) merging alchemical sidechains for PP1:918:GLU
TCL: cphpsfgen) creating new alchemical side chain for PP1:921:LYS
TCL: cphpsfgen) merging alchemical sidechains for PP1:921:LYS
TCL: cphpsfgen) creating new alchemical side chain for PP1:933:LYS
TCL: cphpsfgen) merging alchemical sidechains for PP1:933:LYS
TCL: cphpsfgen) creating new alchemical side chain for PP1:936:HIS
TCL: cphpsfgen) merging alchemical sidechains for PP1:936:HIS
TCL: cphpsfgen) creating new alchemical side chain for PP1:947:LYS
TCL: cphpsfgen) merging alchemical sidechains for PP1:947:LYS
TCL: cphpsfgen) creating new alchemical side chain for PP1:950:ASP
TCL: cphpsfgen) merging alchemical sidechains for PP1:950:ASP
TCL: cphpsfgen) creating new alchemical side chain for PP1:964:LYS
TCL: cphpsfgen) merging alchemical sidechains for PP1:964:LYS
TCL: namdcph) ***************************************
TCL: namdcph) CONSTANT pH MD ACTIVE
TCL: namdcph) SYSTEM pH 12
TCL: namdcph) CONSTANT pH CONFIGURATION FILE(S)
TCL: namdcph) ../../toppar/conf_cph36_prot.json
TCL: namdcph) NONEQUILIBRIUM SWITCH PARAMETERS:
TCL: namdcph) ALCHEMICAL FORCE CONSTANT 100.0 kcal/mol-A^2
TCL: namdcph) neMD/MC CRITERION TEMPERATURE 298.0
TCL: namdcph) TEMPORARY FILE INFORMATION:
TCL: namdcph) cpH TOPOLOGY FILE BASENAME 12/namdcph.md
TCL: namdcph) neMD/MC TRAJECTORY BASENAME 12/namdcph.sw
TCL: namdcph) ***************************************
TCL: namdcph) ***************************************
TCL: namdcph) TITRATABLE RESIDUE DEFINITIONS:
TCL: namdcph) HIS ASP GLU CYS LYS
TCL: namdcph) TITRATABLE SYSTEM SUMMARY:
TCL: namdcph) 7 RESIDUE(S)
TCL: namdcph) 18 PROTONATION SITE(S)
TCL: namdcph) ***************************************
TCL: namdcph) segid:resid:resname : state : pKai
TCL: namdcph) PP1:918:GLU         :     D : 5.90
TCL: namdcph) PP1:921:LYS         :     2 : 9.77
TCL: namdcph) PP1:933:LYS         :     2 : 9.53
TCL: namdcph) PP1:936:HIS         :     D : 6.5 7.0
TCL: namdcph) PP1:947:LYS         :     2 : 9.82
TCL: namdcph) PP1:950:ASP         :     D : 5.50
TCL: namdcph) PP1:964:LYS         :     3 : 9.68
TCL: namdcph) ***************************************
TCL: namdcph) *************************************************
TCL: namdcph) CONSTANT pH neMD/MC MOVES:
TCL: namdcph) MAX. ATTEMPTS PER CYCLE: 1
TCL: namdcph) ONE RESIDUE MOVES
TCL: namdcph) move label     : numsteps   weight
TCL: namdcph) PP1:918:GLU    :    75000     1.00
TCL: namdcph) PP1:921:LYS    :    75000     1.00
TCL: namdcph) PP1:933:LYS    :    75000     1.00
TCL: namdcph) PP1:936:HIS    :    75000     1.00
TCL: namdcph) PP1:947:LYS    :    75000     1.00
TCL: namdcph) PP1:950:ASP    :    75000     1.00
TCL: namdcph) PP1:964:LYS    :    75000     1.00
TCL: namdcph) *************************************************
TCL: namdcph) clearing extraBondsFile 12/namdcph.sw.extrabonds
TCL: Reloading molecular structure from file 12/namdcph.md.psf and pdb file 12/namdcph.md.pdb
Info: READING EXTRA BONDS FILE 12/namdcph.sw.extrabonds
Info: LONG-RANGE LJ: APPLYING ANALYTICAL CORRECTIONS TO ENERGY AND PRESSURE
Info: LONG-RANGE LJ: AVERAGE A AND B COEFFICIENTS 71003.9 AND 74.6249
Info: STRUCTURE SUMMARY:
Info: 25964 ATOMS
Info: 17567 BONDS
Info: 9912 ANGLES
Info: 2278 DIHEDRALS
Info: 183 IMPROPERS
Info: 54 CROSSTERMS
Info: 0 EXCLUSIONS
Info: 25489 RIGID BONDS
Info: 52403 DEGREES OF FREEDOM
Info: 8824 HYDROGEN GROUPS
Info: 4 ATOMS IN LARGEST HYDROGEN GROUP
Info: 8824 MIGRATION GROUPS
Info: 4 ATOMS IN LARGEST MIGRATION GROUP
Info: TOTAL MASS = 157931 amu
Info: TOTAL CHARGE = -4 e
Info: MASS DENSITY = 1.02255 g/cm^3
Info: ATOM DENSITY = 0.101235 atoms/A^3
Info: ADDED 29751 IMPLICIT EXCLUSIONS
Info: NONBONDED TABLE R-SQUARED SPACING: 0.0625
Info: NONBONDED TABLE SIZE: 769 POINTS
TCL: Reinitializing atom data from files with basename 12/namdcph.md
Info: REMOVING COM VELOCITY 8.57301e-05 0.000172415 -4.54569e-06
TCL: Minimizing for 300 steps
ETITLE: TS BOND ANGLE DIHED IMPRP ELECT VDW BOUNDARY MISC KINETIC TOTAL TEMP POTENTIAL TOTAL3 TEMPAVG PRESSURE GPRESSURE VOLUME PRESSAVG GPRESSAVG
ENERGY: 0 51.8879 101.1140 449.9943 1290.0855 -82883.0270 99999999999.9999 0.0000 0.0000 0.0000 99999999999.9999 0.0000 99999999999.9999 99999999999.9999 0.0000 99999999999.9999 99999999999.9999 256473.6171 99999999999.9999 99999999999.9999
ENERGY: 60 67.1547 305.3467 441.4962 109.1241 -93853.6178 12366.3651 0.0000 0.0000 0.0000 -80564.1309 0.0000 -80564.1309 -80564.1309 0.0000 24632.4067 5724.8385 256473.6171 24632.4067 5724.8385
ENERGY: 120 121.2563 224.1291 440.4441 33.7182 -97635.7007 10493.9532 0.0000 0.0000 0.0000 -86322.1999 0.0000 -86322.1999 -86322.1999 0.0000 21919.7719 2262.0098 256473.6171 21919.7719 2262.0098
ENERGY: 180 219.0643 190.0087 435.2715 24.4964 -102393.7572 9029.8205 0.0000 0.0000 0.0000 -92495.0958 0.0000 -92495.0958 -92495.0958 0.0000 20082.1569 -451.5264 256473.6171 20082.1569 -451.5264
ENERGY: 240 96.5394 184.2451 432.5120 14.0704 -105218.9639 8651.6838 0.0000 0.0000 0.0000 -95839.9133 0.0000 -95839.9133 -95839.9133 0.0000 19242.0203 19166.3427 256473.6171 19242.0203 19166.3427
ENERGY: 300 89.6793 177.5186 426.0381 9.0161 -107980.0073 9183.0082 0.0000 0.0000 0.0000 -98094.7471 0.0000 -98094.7471 -98094.7471 0.0000 19679.6781 19612.7403 256473.6171 19679.6781 19612.7403
TCL: Setting parameter firstTimeStep to 0
TCL: Running for 500 steps
ETITLE: TS BOND ANGLE DIHED IMPRP ELECT VDW BOUNDARY MISC KINETIC TOTAL TEMP POTENTIAL TOTAL3 TEMPAVG PRESSURE GPRESSURE VOLUME PRESSAVG GPRESSAVG
ENERGY: 0 89.6793 177.5186 426.0381 9.0161 -107980.0074 9183.0082 0.0000 0.0000 15482.1324 -82612.6147 297.3480 -98094.7471 -82630.9213 297.3480 -3012.5696 -2949.3232 256473.6171 -3012.5696 -2949.3232
TCL: namdcph) Proposal accepted, attemping a switch.
TCL: Setting parameter outputEnergies to 75000
TCL: Setting parameter dcdFreq to 0
TCL: Setting parameter firstTimestep to 0
TCL: Setting parameter alch to on
Info: NONBONDED TABLE R-SQUARED SPACING: 0.0625
Info: NONBONDED TABLE SIZE: 769 POINTS
TCL: Writing to files with basename 12/namdcph.md.
TCL: cphpsfgen) creating new alchemical side chain for PP1:936:HIS
TCL: Reloading molecular structure from file 12/namdcph.sw.psf and pdb file 12/namdcph.sw.pdb
Info: READING EXTRA BONDS FILE 12/namdcph.sw.extrabonds
Info: READ 12 EXTRA BONDS
Info: To read alchdata from file: coordinate pdb file (default)
Info: To read alchflag data from column: 5
Info: LONG-RANGE LJ: APPLYING ANALYTICAL CORRECTIONS TO ENERGY AND PRESSURE
Info: LONG-RANGE LJ: AVERAGE A0 AND B0 COEFFICIENTS 71003.9 AND 74.6249
Info: LONG-RANGE LJ: AVERAGE A1 AND B1 COEFFICIENTS 71003.9 AND 74.6249
Info: STRUCTURE SUMMARY:
Info: 25976 ATOMS
Info: 17592 BONDS
Info: 9935 ANGLES
Info: 2317 DIHEDRALS
Info: 189 IMPROPERS
Info: 54 CROSSTERMS
Info: 0 EXCLUSIONS
Info: 25495 RIGID BONDS
Info: ALCH: 12 ATOMS TO DISAPPEAR IN FINAL STATE
Info: ALCH: 12 ATOMS TO APPEAR IN FINAL STATE
Info: ALCH: 6 DIHEDRALS LINKING INITIAL AND FINAL ATOMS DELETED
Info: 52433 DEGREES OF FREEDOM
Info: 8830 HYDROGEN GROUPS
Info: 4 ATOMS IN LARGEST HYDROGEN GROUP
Info: 8830 MIGRATION GROUPS
Info: 4 ATOMS IN LARGEST MIGRATION GROUP
Info: TOTAL MASS = 158013 amu
Info: TOTAL CHARGE = -4 e
Info: MASS DENSITY = 1.02308 g/cm^3
Info: ATOM DENSITY = 0.101281 atoms/A^3
Info: ADDED 29822 IMPLICIT EXCLUSIONS
Info: NONBONDED TABLE R-SQUARED SPACING: 0.0625
Info: NONBONDED TABLE SIZE: 769 POINTS
TCL: Reinitializing atom data from files with basename 12/namdcph.sw
Info: REMOVING COM VELOCITY 0.0194296 0.0128085 0.0136768
TCL: Running for 75000 steps
ETITLE: TS BOND ANGLE DIHED IMPRP ELECT VDW BOUNDARY MISC KINETIC TOTAL TEMP POTENTIAL TOTAL3 TEMPAVG PRESSURE GPRESSURE VOLUME PRESSAVG GPRESSAVG
ENERGY: 0 163.7232 428.3108 472.9467 34.7742 -103373.6337 9871.7229 0.0000 0.0000 12496.4984 -79905.6574 239.8689 -92402.1558 -79882.3660 222.6216 -661.6757 -622.1061 256473.6171 -532.0243 -532.0104
ENERGY: 75000 156.8715 507.5785 488.8255 30.3554 -96747.3294 8191.4297 0.0000 0.0000 15337.5253 -72034.7435 294.4021 -87372.2688 -71994.5944 295.7183 -287.0229 -258.1719 256473.6171 -198.9014 -198.9023
TCL: Setting parameter outputEnergies to 1000
TCL: Setting parameter dcdFreq to 1000
TCL: namdcph) PP1:936:HIS:D:E WorkCorr    15.8000 CorrWork     1.0400
TCL: Setting parameter outputEnergies to 1000
TCL: Setting parameter dcdFreq to 1000
TCL: Setting parameter firstTimestep to 500
TCL: namdcph) Switch rejected!
TCL: Setting parameter alch to off
Info: NONBONDED TABLE R-SQUARED SPACING: 0.0625
Info: NONBONDED TABLE SIZE: 769 POINTS
TCL: namdcph) clearing extraBondsFile 12/namdcph.sw.extrabonds
TCL: Reloading molecular structure from file 12/namdcph.md.psf and pdb file 12/namdcph.md.pdb
Info: READING EXTRA BONDS FILE 12/namdcph.sw.extrabonds
Info: LONG-RANGE LJ: APPLYING ANALYTICAL CORRECTIONS TO ENERGY AND PRESSURE
Info: LONG-RANGE LJ: AVERAGE A AND B COEFFICIENTS 71003.9 AND 74.6249
Info: STRUCTURE SUMMARY:
Info: 25964 ATOMS
Info: 17567 BONDS
Info: 9912 ANGLES
Info: 2278 DIHEDRALS
Info: 183 IMPROPERS
Info: 54 CROSSTERMS
Info: 0 EXCLUSIONS
Info: 25489 RIGID BONDS
Info: 52403 DEGREES OF FREEDOM
Info: 8824 HYDROGEN GROUPS
Info: 4 ATOMS IN LARGEST HYDROGEN GROUP
Info: 8824 MIGRATION GROUPS
Info: 4 ATOMS IN LARGEST MIGRATION GROUP
Info: TOTAL MASS = 157931 amu
Info: TOTAL CHARGE = -4 e
Info: MASS DENSITY = 1.02255 g/cm^3
Info: ATOM DENSITY = 0.101235 atoms/A^3
Info: ADDED 29751 IMPLICIT EXCLUSIONS
Info: NONBONDED TABLE R-SQUARED SPACING: 0.0625
Info: NONBONDED TABLE SIZE: 769 POINTS
TCL: Reinitializing atom data from files with basename 12/namdcph.md
Info: REMOVING COM VELOCITY 0.0187991 0.0128797 0.0160479
TCL: Running for 500 steps
ETITLE: TS BOND ANGLE DIHED IMPRP ELECT VDW BOUNDARY MISC KINETIC TOTAL TEMP POTENTIAL TOTAL3 TEMPAVG PRESSURE GPRESSURE VOLUME PRESSAVG GPRESSAVG
ENERGY: 1000 151.0112 450.5336 471.7398 21.0495 -102264.5396 9671.2136 0.0000 0.0000 13327.9188 -78171.0729 255.9744 -91498.9918 -78137.0624 249.0423 -416.6776 -381.3784 256473.6171 -577.0944 -576.9904
TCL: namdcph) Proposal rejected.
TCL: Running for 500 steps without repeating first step
TCL: namdcph) Proposal accepted, attemping a switch.
TCL: Setting parameter outputEnergies to 75000
TCL: Setting parameter dcdFreq to 0
TCL: Setting parameter firstTimestep to 0
TCL: Setting parameter alch to on
Info: NONBONDED TABLE R-SQUARED SPACING: 0.0625
Info: NONBONDED TABLE SIZE: 769 POINTS
TCL: Writing to files with basename 12/namdcph.md.
TCL: cphpsfgen) creating new alchemical side chain for PP1:936:HIS
TCL: Reloading molecular structure from file 12/namdcph.sw.psf and pdb file 12/namdcph.sw.pdb
Info: READING EXTRA BONDS FILE 12/namdcph.sw.extrabonds
Info: READ 12 EXTRA BONDS
Info: To read alchdata from file: coordinate pdb file (default)
Info: To read alchflag data from column: 5
Info: LONG-RANGE LJ: APPLYING ANALYTICAL CORRECTIONS TO ENERGY AND PRESSURE
Info: LONG-RANGE LJ: AVERAGE A0 AND B0 COEFFICIENTS 71003.9 AND 74.6249
Info: LONG-RANGE LJ: AVERAGE A1 AND B1 COEFFICIENTS 71003.9 AND 74.6249
Info: STRUCTURE SUMMARY:
Info: 25976 ATOMS
Info: 17592 BONDS
Info: 9935 ANGLES
Info: 2317 DIHEDRALS
Info: 189 IMPROPERS
Info: 54 CROSSTERMS
Info: 0 EXCLUSIONS
Info: 25495 RIGID BONDS
Info: ALCH: 12 ATOMS TO DISAPPEAR IN FINAL STATE
Info: ALCH: 12 ATOMS TO APPEAR IN FINAL STATE
Info: ALCH: 6 DIHEDRALS LINKING INITIAL AND FINAL ATOMS DELETED
Info: 52433 DEGREES OF FREEDOM
Info: 8830 HYDROGEN GROUPS
Info: 4 ATOMS IN LARGEST HYDROGEN GROUP
Info: 8830 MIGRATION GROUPS
Info: 4 ATOMS IN LARGEST MIGRATION GROUP
Info: TOTAL MASS = 158013 amu
Info: TOTAL CHARGE = -4 e
Info: MASS DENSITY = 1.02308 g/cm^3
Info: ATOM DENSITY = 0.101281 atoms/A^3
Info: ADDED 29822 IMPLICIT EXCLUSIONS
Info: NONBONDED TABLE R-SQUARED SPACING: 0.0625
Info: NONBONDED TABLE SIZE: 769 POINTS
TCL: Reinitializing atom data from files with basename 12/namdcph.sw
Info: REMOVING COM VELOCITY 0.0487776 0.0610126 0.0100344
TCL: Running for 75000 steps
ETITLE: TS BOND ANGLE DIHED IMPRP ELECT VDW BOUNDARY MISC KINETIC TOTAL TEMP POTENTIAL TOTAL3 TEMPAVG PRESSURE GPRESSURE VOLUME PRESSAVG GPRESSAVG
ENERGY: 0 155.7487 461.6362 475.6632 25.8004 -100724.6588 9174.5034 0.0000 0.0000 13960.3553 -76470.9517 267.9675 -90431.3070 -76440.4833 262.1884 -519.5698 -482.9575 256473.6171 -488.0296 -487.9428
ENERGY: 75000 176.7932 484.4610 480.1752 44.3884 -97044.5785 8320.3499 0.0000 0.0000 15537.1992 -72001.2116 298.2349 -87538.4108 -71959.7493 296.7620 -268.6510 -237.6887 256473.6171 -199.1492 -199.1486
TCL: Setting parameter outputEnergies to 1000
TCL: Setting parameter dcdFreq to 1000
TCL: namdcph) PP1:936:HIS:D:E WorkCorr    15.8000 CorrWork    -0.0574
TCL: Setting parameter outputEnergies to 1000
TCL: Setting parameter dcdFreq to 1000
TCL: Setting parameter firstTimestep to 1500
TCL: namdcph) Switch accepted!
TCL: Writing to files with basename 12/namdcph.sw.
TCL: cphpsfgen) merging alchemical sidechains for PP1:936:HIS
TCL: Setting parameter alch to off
Info: NONBONDED TABLE R-SQUARED SPACING: 0.0625
Info: NONBONDED TABLE SIZE: 769 POINTS
TCL: namdcph) clearing extraBondsFile 12/namdcph.sw.extrabonds
TCL: Reloading molecular structure from file 12/namdcph.md.psf and pdb file 12/namdcph.md.pdb
Info: READING EXTRA BONDS FILE 12/namdcph.sw.extrabonds
Info: LONG-RANGE LJ: APPLYING ANALYTICAL CORRECTIONS TO ENERGY AND PRESSURE
Info: LONG-RANGE LJ: AVERAGE A AND B COEFFICIENTS 71003.9 AND 74.6249
Info: STRUCTURE SUMMARY:
Info: 25964 ATOMS
Info: 17567 BONDS
Info: 9912 ANGLES
Info: 2278 DIHEDRALS
Info: 183 IMPROPERS
Info: 54 CROSSTERMS
Info: 0 EXCLUSIONS
Info: 25489 RIGID BONDS
Info: 52403 DEGREES OF FREEDOM
Info: 8824 HYDROGEN GROUPS
Info: 4 ATOMS IN LARGEST HYDROGEN GROUP
Info: 8824 MIGRATION GROUPS
Info: 4 ATOMS IN LARGEST MIGRATION GROUP
Info: TOTAL MASS = 157931 amu
Info: TOTAL CHARGE = -4 e
Info: MASS DENSITY = 1.02255 g/cm^3
Info: ATOM DENSITY = 0.101235 atoms/A^3
Info: ADDED 29751 IMPLICIT EXCLUSIONS
Info: NONBONDED TABLE R-SQUARED SPACING: 0.0625
Info: NONBONDED TABLE SIZE: 769 POINTS
TCL: Reinitializing atom data from files with basename 12/namdcph.md
Info: REMOVING COM VELOCITY -0.0227302 0.0635292 -0.137997
TCL: Running for 500 steps
ETITLE: TS BOND ANGLE DIHED IMPRP ELECT VDW BOUNDARY MISC KINETIC TOTAL TEMP POTENTIAL TOTAL3 TEMPAVG PRESSURE GPRESSURE VOLUME PRESSAVG GPRESSAVG
ENERGY: 2000 171.9258 500.4124 503.7613 37.7173 -97193.2630 8447.5814 0.0000 0.0000 15294.5580 -72237.3067 293.7455 -87531.8647 -72198.8950 297.4512 -246.8310 -220.8498 256473.6171 -176.0570 -175.9368
TCL: namdcph) Proposal rejected.
TCL: Running for 500 steps without repeating first step
TCL: namdcph) Proposal rejected.
TCL: Running for 500 steps without repeating first step
ETITLE: TS BOND ANGLE DIHED IMPRP ELECT VDW BOUNDARY MISC KINETIC TOTAL TEMP POTENTIAL TOTAL3 TEMPAVG PRESSURE GPRESSURE VOLUME PRESSAVG GPRESSAVG
ENERGY: 3000 172.7438 505.8178 480.0895 27.2707 -97042.8389 8232.6328 0.0000 0.0000 15343.6513 -72280.6329 294.6883 -87624.2843 -72248.8437 295.7359 -477.3833 -447.0524 256473.6171 -178.7345 -178.8839
TCL: namdcph) Proposal rejected.
TCL: Running for 500 steps without repeating first step
TCL: namdcph) Proposal rejected.
TCL: Running for 500 steps without repeating first step
ETITLE: TS BOND ANGLE DIHED IMPRP ELECT VDW BOUNDARY MISC KINETIC TOTAL TEMP POTENTIAL TOTAL3 TEMPAVG PRESSURE GPRESSURE VOLUME PRESSAVG GPRESSAVG
ENERGY: 4000 179.3767 467.5955 469.4862 35.2693 -97274.8621 8381.2943 0.0000 0.0000 15356.9812 -72384.8589 294.9444 -87741.8401 -72342.9176 295.0901 -407.8745 -368.7005 256473.6171 -245.8900 -245.8209
TCL: namdcph) Proposal rejected.
TCL: Running for 500 steps without repeating first step
TCL: namdcph) Proposal rejected.
TCL: Running for 500 steps without repeating first step
ETITLE: TS BOND ANGLE DIHED IMPRP ELECT VDW BOUNDARY MISC KINETIC TOTAL TEMP POTENTIAL TOTAL3 TEMPAVG PRESSURE GPRESSURE VOLUME PRESSAVG GPRESSAVG
ENERGY: 5000 166.3946 497.3991 471.8282 38.2263 -97387.3579 8455.4661 0.0000 0.0000 15470.3242 -72287.7194 297.1212 -87758.0436 -72249.7131 295.9376 -197.0711 -161.2926 256473.6171 -183.7743 -183.7584
TCL: namdcph) Proposal rejected.
TCL: Running for 500 steps without repeating first step
TCL: namdcph) Proposal rejected.
TCL: Running for 500 steps without repeating first step
ETITLE: TS BOND ANGLE DIHED IMPRP ELECT VDW BOUNDARY MISC KINETIC TOTAL TEMP POTENTIAL TOTAL3 TEMPAVG PRESSURE GPRESSURE VOLUME PRESSAVG GPRESSAVG
ENERGY: 6000 161.1642 493.5805 469.8124 36.5524 -97283.4657 8427.2119 0.0000 0.0000 15473.7323 -72221.4120 297.1867 -87695.1443 -72187.9037 297.1805 -269.7331 -232.7794 256473.6171 -152.0565 -152.1852
TCL: namdcph) Proposal rejected.
TCL: Running for 500 steps without repeating first step
TCL: namdcph) Proposal rejected.
TCL: Running for 500 steps without repeating first step
ETITLE: TS BOND ANGLE DIHED IMPRP ELECT VDW BOUNDARY MISC KINETIC TOTAL TEMP POTENTIAL TOTAL3 TEMPAVG PRESSURE GPRESSURE VOLUME PRESSAVG GPRESSAVG
ENERGY: 7000 161.8850 495.5809 466.5993 32.5169 -97413.8705 8417.9233 0.0000 0.0000 15451.7600 -72387.6051 296.7647 -87839.3651 -72353.8880 296.1853 -291.8055 -257.6231 256473.6171 -254.1352 -254.2039
TCL: namdcph) Proposal rejected.
TCL: Running for 500 steps without repeating first step
TCL: namdcph) Proposal rejected.
TCL: Running for 500 steps without repeating first step
ETITLE: TS BOND ANGLE DIHED IMPRP ELECT VDW BOUNDARY MISC KINETIC TOTAL TEMP POTENTIAL TOTAL3 TEMPAVG PRESSURE GPRESSURE VOLUME PRESSAVG GPRESSAVG
ENERGY: 8000 164.2623 477.9741 474.7721 29.9793 -97475.0071 8509.3376 0.0000 0.0000 15407.4355 -72411.2463 295.9134 -87818.6818 -72374.0811 295.9388 -270.5773 -230.9315 256473.6171 -193.8361 -193.9090
TCL: namdcph) Proposal rejected.
TCL: Running for 500 steps without repeating first step
TCL: namdcph) Proposal rejected.
TCL: Running for 500 steps without repeating first step
ETITLE: TS BOND ANGLE DIHED IMPRP ELECT VDW BOUNDARY MISC KINETIC TOTAL TEMP POTENTIAL TOTAL3 TEMPAVG PRESSURE GPRESSURE VOLUME PRESSAVG GPRESSAVG
ENERGY: 9000 169.6435 482.6784 472.9976 29.7290 -97446.2672 8523.4641 0.0000 0.0000 15386.0234 -72381.7312 295.5021 -87767.7546 -72341.8599 296.1514 -170.0762 -136.9349 256473.6171 -182.6554 -182.5770
TCL: namdcph) Proposal rejected.
TCL: Running for 500 steps without repeating first step
TCL: namdcph) Proposal rejected.
TCL: Running for 500 steps without repeating first step
ETITLE: TS BOND ANGLE DIHED IMPRP ELECT VDW BOUNDARY MISC KINETIC TOTAL TEMP POTENTIAL TOTAL3 TEMPAVG PRESSURE GPRESSURE VOLUME PRESSAVG GPRESSAVG
ENERGY: 10000 183.7576 453.8275 482.4445 30.9078 -97311.6790 8510.5304 0.0000 0.0000 15539.9279 -72110.2834 298.4580 -87650.2113 -72070.6094 296.4017 -185.8285 -153.4702 256473.6171 -166.1272 -166.2830
TCL: namdcph) Proposal rejected.
TCL: Running for 500 steps without repeating first step
TCL: namdcph) Proposal rejected.
TCL: Running for 500 steps without repeating first step
ETITLE: TS BOND ANGLE DIHED IMPRP ELECT VDW BOUNDARY MISC KINETIC TOTAL TEMP POTENTIAL TOTAL3 TEMPAVG PRESSURE GPRESSURE VOLUME PRESSAVG GPRESSAVG
ENERGY: 11000 144.9712 451.3562 461.1754 40.1400 -97042.9484 8305.9746 0.0000 0.0000 15555.8219 -72083.5092 298.7633 -87639.3310 -72047.0190 297.6009 -216.8524 -187.0060 256473.6171 -171.6955 -171.7571
TCL: namdcph) Proposal rejected.
TCL: Running for 500 steps without repeating first step
TCL: namdcph) Proposal rejected.
TCL: Running for 500 steps without repeating first step
ETITLE: TS BOND ANGLE DIHED IMPRP ELECT VDW BOUNDARY MISC KINETIC TOTAL TEMP POTENTIAL TOTAL3 TEMPAVG PRESSURE GPRESSURE VOLUME PRESSAVG GPRESSAVG
ENERGY: 12000 166.6155 489.4495 467.9067 30.4980 -97008.3074 8275.1582 0.0000 0.0000 15488.3187 -72090.3610 297.4668 -87578.6797 -72052.2734 296.8304 -391.4524 -354.8528 256473.6171 -209.0614 -209.1450
TCL: namdcph) Proposal rejected.
TCL: Running for 500 steps without repeating first step
TCL: namdcph) Proposal rejected.
TCL: Running for 500 steps without repeating first step
ETITLE: TS BOND ANGLE DIHED IMPRP ELECT VDW BOUNDARY MISC KINETIC TOTAL TEMP POTENTIAL TOTAL3 TEMPAVG PRESSURE GPRESSURE VOLUME PRESSAVG GPRESSAVG
ENERGY: 13000 170.3267 483.8355 471.0970 36.5792 -97315.9852 8392.4107 0.0000 0.0000 15458.3991 -72303.3371 296.8922 -87761.7362 -72264.3635 297.2113 -255.2597 -221.5358 256473.6171 -172.5682 -172.6724
TCL: namdcph) Proposal rejected.
TCL: Running for 500 steps without repeating first step
TCL: namdcph) Proposal rejected.
TCL: Running for 500 steps without repeating first step
ETITLE: TS BOND ANGLE DIHED IMPRP ELECT VDW BOUNDARY MISC KINETIC TOTAL TEMP POTENTIAL TOTAL3 TEMPAVG PRESSURE GPRESSURE VOLUME PRESSAVG GPRESSAVG
ENERGY: 14000 152.5120 483.5947 471.8174 33.8520 -96918.8386 8280.6384 0.0000 0.0000 15423.7723 -72072.6518 296.2271 -87496.4241 -72036.0308 296.8442 -221.2684 -187.9669 256473.6171 -241.4857 -241.5252
TCL: namdcph) Proposal rejected.
TCL: Running for 500 steps without repeating first step
TCL: namdcph) Proposal rejected.
TCL: Running for 500 steps without repeating first step
ETITLE: TS BOND ANGLE DIHED IMPRP ELECT VDW BOUNDARY MISC KINETIC TOTAL TEMP POTENTIAL TOTAL3 TEMPAVG PRESSURE GPRESSURE VOLUME PRESSAVG GPRESSAVG
ENERGY: 15000 162.7033 450.5061 474.5107 30.8410 -97267.4853 8392.9997 0.0000 0.0000 15517.1689 -72238.7557 298.0209 -87755.9246 -72202.5056 296.4260 -355.2542 -319.9476 256473.6171 -207.3125 -207.2537
TCL: namdcph) Proposal rejected.
TCL: Running for 500 steps without repeating first step
TCL: namdcph) Proposal rejected.
TCL: Running for 500 steps without repeating first step
ETITLE: TS BOND ANGLE DIHED IMPRP ELECT VDW BOUNDARY MISC KINETIC TOTAL TEMP POTENTIAL TOTAL3 TEMPAVG PRESSURE GPRESSURE VOLUME PRESSAVG GPRESSAVG
ENERGY: 16000 159.1623 484.7210 472.4413 29.2383 -97465.2139 8557.4737 0.0000 0.0000 15741.5997 -72020.5777 302.3313 -87762.1773 -71982.4273 297.1245 -87.0729 -52.6670 256473.6171 -217.1013 -217.1353
TCL: namdcph) Proposal rejected.
TCL: Running for 500 steps without repeating first step
TCL: namdcph) Proposal rejected.
TCL: Running for 500 steps without repeating first step
ETITLE: TS BOND ANGLE DIHED IMPRP ELECT VDW BOUNDARY MISC KINETIC TOTAL TEMP POTENTIAL TOTAL3 TEMPAVG PRESSURE GPRESSURE VOLUME PRESSAVG GPRESSAVG
ENERGY: 17000 155.1506 481.3889 471.9955 33.8902 -97128.8495 8389.6505 0.0000 0.0000 15455.6803 -72141.0936 296.8400 -87596.7739 -72103.4810 297.6922 -256.9713 -223.8292 256473.6171 -184.1899 -184.3201
TCL: namdcph) Proposal rejected.
TCL: Running for 500 steps without repeating first step
TCL: namdcph) Proposal rejected.
TCL: Running for 500 steps without repeating first step
ETITLE: TS BOND ANGLE DIHED IMPRP ELECT VDW BOUNDARY MISC KINETIC TOTAL TEMP POTENTIAL TOTAL3 TEMPAVG PRESSURE GPRESSURE VOLUME PRESSAVG GPRESSAVG
ENERGY: 18000 169.2829 480.2234 470.4588 39.4362 -97164.9593 8346.0104 0.0000 0.0000 15489.6123 -72169.9352 297.4917 -87659.5475 -72136.2149 297.6249 -322.5254 -285.0913 256473.6171 -173.2264 -173.1597
TCL: namdcph) Proposal rejected.
TCL: Running for 500 steps without repeating first step
TCL: namdcph) Proposal rejected.
TCL: Running for 500 steps without repeating first step
ETITLE: TS BOND ANGLE DIHED IMPRP ELECT VDW BOUNDARY MISC KINETIC TOTAL TEMP POTENTIAL TOTAL3 TEMPAVG PRESSURE GPRESSURE VOLUME PRESSAVG GPRESSAVG
ENERGY: 19000 156.2168 510.6027 466.1439 30.4428 -96969.4756 8352.4175 0.0000 0.0000 15466.1819 -71987.4700 297.0416 -87453.6519 -71950.0405 297.5184 -201.4472 -168.9761 256473.6171 -196.3551 -196.3529
TCL: namdcph) Proposal rejected.
TCL: Running for 500 steps without repeating first step
TCL: namdcph) Proposal rejected.
TCL: Running for 500 steps without repeating first step
ETITLE: TS BOND ANGLE DIHED IMPRP ELECT VDW BOUNDARY MISC KINETIC TOTAL TEMP POTENTIAL TOTAL3 TEMPAVG PRESSURE GPRESSURE VOLUME PRESSAVG GPRESSAVG
ENERGY: 20000 177.9169 480.4514 462.2197 31.1829 -96766.2590 8201.9332 0.0000 0.0000 15562.9231 -71849.6317 298.8996 -87412.5548 -71814.5444 299.7297 -448.2700 -416.1122 256473.6171 -121.5278 -121.4732
TCL: namdcph) Proposal rejected.
TCL: Running for 500 steps without repeating first step
TCL: namdcph) Proposal rejected.
TCL: Running for 500 steps without repeating first step
ETITLE: TS BOND ANGLE DIHED IMPRP ELECT VDW BOUNDARY MISC KINETIC TOTAL TEMP POTENTIAL TOTAL3 TEMPAVG PRESSURE GPRESSURE VOLUME PRESSAVG GPRESSAVG
ENERGY: 21000 163.2196 471.1376 484.8570 33.3247 -97089.3632 8543.8788 0.0000 0.0000 15537.5717 -71855.3738 298.4128 -87392.9455 -71814.0104 298.9589 25.2527 56.8180 256473.6171 -121.8445 -121.8473
TCL: namdcph) Proposal rejected.
TCL: Running for 500 steps without repeating first step
TCL: namdcph) Proposal rejected.
TCL: Running for 500 steps without repeating first step
ETITLE: TS BOND ANGLE DIHED IMPRP ELECT VDW BOUNDARY MISC KINETIC TOTAL TEMP POTENTIAL TOTAL3 TEMPAVG PRESSURE GPRESSURE VOLUME PRESSAVG GPRESSAVG
ENERGY: 22000 151.7829 505.9984 470.6238 34.3814 -96754.4028 8181.5051 0.0000 0.0000 15465.6395 -71944.4718 297.0312 -87410.1112 -71904.7586 299.0647 -291.3103 -253.7123 256473.6171 -116.2511 -116.2756
TCL: namdcph) Proposal rejected.
TCL: Running for 500 steps without repeating first step
TCL: namdcph) Proposal accepted, attemping a switch.
TCL: Setting parameter outputEnergies to 75000
TCL: Setting parameter dcdFreq to 0
TCL: Setting parameter firstTimestep to 0
TCL: Setting parameter alch to on
Info: NONBONDED TABLE R-SQUARED SPACING: 0.0625
Info: NONBONDED TABLE SIZE: 769 POINTS
TCL: Writing to files with basename 12/namdcph.md.
TCL: cphpsfgen) creating new alchemical side chain for PP1:936:HIS
TCL: Reloading molecular structure from file 12/namdcph.sw.psf and pdb file 12/namdcph.sw.pdb
Info: READING EXTRA BONDS FILE 12/namdcph.sw.extrabonds
Info: READ 12 EXTRA BONDS
Info: To read alchdata from file: coordinate pdb file (default)
Info: To read alchflag data from column: 5
Info: LONG-RANGE LJ: APPLYING ANALYTICAL CORRECTIONS TO ENERGY AND PRESSURE
Info: LONG-RANGE LJ: AVERAGE A0 AND B0 COEFFICIENTS 71003.9 AND 74.6249
Info: LONG-RANGE LJ: AVERAGE A1 AND B1 COEFFICIENTS 71003.9 AND 74.6249
Info: STRUCTURE SUMMARY:
Info: 25976 ATOMS
Info: 17592 BONDS
Info: 9935 ANGLES
Info: 2317 DIHEDRALS
Info: 189 IMPROPERS
Info: 54 CROSSTERMS
Info: 0 EXCLUSIONS
Info: 25495 RIGID BONDS
Info: ALCH: 12 ATOMS TO DISAPPEAR IN FINAL STATE
Info: ALCH: 12 ATOMS TO APPEAR IN FINAL STATE
Info: ALCH: 6 DIHEDRALS LINKING INITIAL AND FINAL ATOMS DELETED
Info: 52433 DEGREES OF FREEDOM
Info: 8830 HYDROGEN GROUPS
Info: 4 ATOMS IN LARGEST HYDROGEN GROUP
Info: 8830 MIGRATION GROUPS
Info: 4 ATOMS IN LARGEST MIGRATION GROUP
Info: TOTAL MASS = 158013 amu
Info: TOTAL CHARGE = -4 e
Info: MASS DENSITY = 1.02308 g/cm^3
Info: ATOM DENSITY = 0.101281 atoms/A^3
Info: ADDED 29822 IMPLICIT EXCLUSIONS
Info: NONBONDED TABLE R-SQUARED SPACING: 0.0625
Info: NONBONDED TABLE SIZE: 769 POINTS
TCL: Reinitializing atom data from files with basename 12/namdcph.sw
Info: REMOVING COM VELOCITY -0.0581174 0.0151188 -0.0325085
TCL: Running for 75000 steps
ETITLE: TS BOND ANGLE DIHED IMPRP ELECT VDW BOUNDARY MISC KINETIC TOTAL TEMP POTENTIAL TOTAL3 TEMPAVG PRESSURE GPRESSURE VOLUME PRESSAVG GPRESSAVG
ENERGY: 0 152.6306 506.8481 476.5682 34.8492 -97127.0824 8533.2646 0.0000 0.0000 15539.9143 -71883.0074 298.2870 -87422.9217 -71845.8617 298.9051 17.7529 53.1392 256473.6171 -148.6178 -148.6972
ENERGY: 75000 170.9778 494.1785 465.6812 33.5774 -97283.5225 8500.7411 0.0000 0.0000 15344.1599 -72274.2066 294.5295 -87618.3665 -72238.4012 297.7316 -191.3212 -157.6438 256473.6171 -178.9909 -178.9923
TCL: Setting parameter outputEnergies to 1000
TCL: Setting parameter dcdFreq to 1000
TCL: namdcph) PP1:936:HIS:E:D WorkCorr   -15.8000 CorrWork     0.1989
TCL: Setting parameter outputEnergies to 1000
TCL: Setting parameter dcdFreq to 1000
TCL: Setting parameter firstTimestep to 22500
TCL: namdcph) Switch accepted!
TCL: Writing to files with basename 12/namdcph.sw.
TCL: cphpsfgen) merging alchemical sidechains for PP1:936:HIS
TCL: Setting parameter alch to off
Info: NONBONDED TABLE R-SQUARED SPACING: 0.0625
Info: NONBONDED TABLE SIZE: 769 POINTS
TCL: namdcph) clearing extraBondsFile 12/namdcph.sw.extrabonds
TCL: Reloading molecular structure from file 12/namdcph.md.psf and pdb file 12/namdcph.md.pdb
Info: READING EXTRA BONDS FILE 12/namdcph.sw.extrabonds
Info: LONG-RANGE LJ: APPLYING ANALYTICAL CORRECTIONS TO ENERGY AND PRESSURE
Info: LONG-RANGE LJ: AVERAGE A AND B COEFFICIENTS 71003.9 AND 74.6249
Info: STRUCTURE SUMMARY:
Info: 25964 ATOMS
Info: 17567 BONDS
Info: 9912 ANGLES
Info: 2278 DIHEDRALS
Info: 183 IMPROPERS
Info: 54 CROSSTERMS
Info: 0 EXCLUSIONS
Info: 25489 RIGID BONDS
Info: 52403 DEGREES OF FREEDOM
Info: 8824 HYDROGEN GROUPS
Info: 4 ATOMS IN LARGEST HYDROGEN GROUP
Info: 8824 MIGRATION GROUPS
Info: 4 ATOMS IN LARGEST MIGRATION GROUP
Info: TOTAL MASS = 157931 amu
Info: TOTAL CHARGE = -4 e
Info: MASS DENSITY = 1.02255 g/cm^3
Info: ATOM DENSITY = 0.101235 atoms/A^3
Info: ADDED 29751 IMPLICIT EXCLUSIONS
Info: NONBONDED TABLE R-SQUARED SPACING: 0.0625
Info: NONBONDED TABLE SIZE: 769 POINTS
TCL: Reinitializing atom data from files with basename 12/namdcph.md
Info: REMOVING COM VELOCITY 0.0475055 -0.0506697 -0.00311298
TCL: Running for 500 steps
ETITLE: TS BOND ANGLE DIHED IMPRP ELECT VDW BOUNDARY MISC KINETIC TOTAL TEMP POTENTIAL TOTAL3 TEMPAVG PRESSURE GPRESSURE VOLUME PRESSAVG GPRESSAVG
ENERGY: 23000 139.5979 497.6019 466.1785 29.3271 -97256.1943 8448.6885 0.0000 0.0000 15466.9239 -72207.8765 297.0559 -87674.8004 -72170.4162 297.1252 -71.3851 -39.4804 256473.6171 -159.3361 -159.2669
TCL: namdcph) Proposal rejected.
TCL: Running for 500 steps without repeating first step
TCL: namdcph) Proposal accepted, attemping a switch.
TCL: Setting parameter outputEnergies to 75000
TCL: Setting parameter dcdFreq to 0
TCL: Setting parameter firstTimestep to 0
TCL: Setting parameter alch to on
Info: NONBONDED TABLE R-SQUARED SPACING: 0.0625
Info: NONBONDED TABLE SIZE: 769 POINTS
TCL: Writing to files with basename 12/namdcph.md.
TCL: cphpsfgen) creating new alchemical side chain for PP1:936:HIS
TCL: Reloading molecular structure from file 12/namdcph.sw.psf and pdb file 12/namdcph.sw.pdb
Info: READING EXTRA BONDS FILE 12/namdcph.sw.extrabonds
Info: READ 12 EXTRA BONDS
Info: To read alchdata from file: coordinate pdb file (default)
Info: To read alchflag data from column: 5
Info: LONG-RANGE LJ: APPLYING ANALYTICAL CORRECTIONS TO ENERGY AND PRESSURE
Info: LONG-RANGE LJ: AVERAGE A0 AND B0 COEFFICIENTS 71003.9 AND 74.6249
Info: LONG-RANGE LJ: AVERAGE A1 AND B1 COEFFICIENTS 71003.9 AND 74.6249
Info: STRUCTURE SUMMARY:
Info: 25976 ATOMS
Info: 17592 BONDS
Info: 9935 ANGLES
Info: 2317 DIHEDRALS
Info: 189 IMPROPERS
Info: 54 CROSSTERMS
Info: 0 EXCLUSIONS
Info: 25495 RIGID BONDS
Info: ALCH: 12 ATOMS TO DISAPPEAR IN FINAL STATE
Info: ALCH: 12 ATOMS TO APPEAR IN FINAL STATE
Info: ALCH: 6 DIHEDRALS LINKING INITIAL AND FINAL ATOMS DELETED
Info: 52433 DEGREES OF FREEDOM
Info: 8830 HYDROGEN GROUPS
Info: 4 ATOMS IN LARGEST HYDROGEN GROUP
Info: 8830 MIGRATION GROUPS
Info: 4 ATOMS IN LARGEST MIGRATION GROUP
Info: TOTAL MASS = 158013 amu
Info: TOTAL CHARGE = -4 e
Info: MASS DENSITY = 1.02308 g/cm^3
Info: ATOM DENSITY = 0.101281 atoms/A^3
Info: ADDED 29822 IMPLICIT EXCLUSIONS
Info: NONBONDED TABLE R-SQUARED SPACING: 0.0625
Info: NONBONDED TABLE SIZE: 769 POINTS
TCL: Reinitializing atom data from files with basename 12/namdcph.sw
Info: REMOVING COM VELOCITY 0.0228742 -0.0380722 0.0609242
TCL: Running for 75000 steps
ETITLE: TS BOND ANGLE DIHED IMPRP ELECT VDW BOUNDARY MISC KINETIC TOTAL TEMP POTENTIAL TOTAL3 TEMPAVG PRESSURE GPRESSURE VOLUME PRESSAVG GPRESSAVG
ENERGY: 0 156.6226 479.0501 468.8578 38.7126 -97366.9419 8457.4849 0.0000 0.0000 15604.4664 -72161.7475 299.5261 -87766.2140 -72123.8702 297.1284 -224.3986 -192.7971 256473.6171 -203.1456 -203.1547
ENERGY: 75000 147.0134 508.0542 463.2722 36.9808 -97628.3373 8650.2470 0.0000 0.0000 15602.0087 -72220.7610 299.4789 -87822.7697 -72180.4895 296.8912 -37.6323 -0.8946 256473.6171 -188.6881 -188.6770
TCL: Setting parameter outputEnergies to 1000
TCL: Setting parameter dcdFreq to 1000
TCL: namdcph) PP1:936:HIS:D:E WorkCorr    15.8000 CorrWork    -0.7308
TCL: Setting parameter outputEnergies to 1000
TCL: Setting parameter dcdFreq to 1000
TCL: Setting parameter firstTimestep to 23500
TCL: namdcph) Switch accepted!
TCL: Writing to files with basename 12/namdcph.sw.
TCL: cphpsfgen) merging alchemical sidechains for PP1:936:HIS
TCL: Setting parameter alch to off
Info: NONBONDED TABLE R-SQUARED SPACING: 0.0625
Info: NONBONDED TABLE SIZE: 769 POINTS
TCL: namdcph) clearing extraBondsFile 12/namdcph.sw.extrabonds
TCL: Reloading molecular structure from file 12/namdcph.md.psf and pdb file 12/namdcph.md.pdb
Info: READING EXTRA BONDS FILE 12/namdcph.sw.extrabonds
Info: LONG-RANGE LJ: APPLYING ANALYTICAL CORRECTIONS TO ENERGY AND PRESSURE
Info: LONG-RANGE LJ: AVERAGE A AND B COEFFICIENTS 71003.9 AND 74.6249
Info: STRUCTURE SUMMARY:
Info: 25964 ATOMS
Info: 17567 BONDS
Info: 9912 ANGLES
Info: 2278 DIHEDRALS
Info: 183 IMPROPERS
Info: 54 CROSSTERMS
Info: 0 EXCLUSIONS
Info: 25489 RIGID BONDS
Info: 52403 DEGREES OF FREEDOM
Info: 8824 HYDROGEN GROUPS
Info: 4 ATOMS IN LARGEST HYDROGEN GROUP
Info: 8824 MIGRATION GROUPS
Info: 4 ATOMS IN LARGEST MIGRATION GROUP
Info: TOTAL MASS = 157931 amu
Info: TOTAL CHARGE = -4 e
Info: MASS DENSITY = 1.02255 g/cm^3
Info: ATOM DENSITY = 0.101235 atoms/A^3
Info: ADDED 29751 IMPLICIT EXCLUSIONS
Info: NONBONDED TABLE R-SQUARED SPACING: 0.0625
Info: NONBONDED TABLE SIZE: 769 POINTS
TCL: Reinitializing atom data from files with basename 12/namdcph.md
Info: REMOVING COM VELOCITY 0.065052 0.0225214 0.0458395
TCL: Running for 500 steps
ETITLE: TS BOND ANGLE DIHED IMPRP ELECT VDW BOUNDARY MISC KINETIC TOTAL TEMP POTENTIAL TOTAL3 TEMPAVG PRESSURE GPRESSURE VOLUME PRESSAVG GPRESSAVG
ENERGY: 24000 159.8896 493.9150 474.9029 36.5294 -97145.8705 8339.8258 0.0000 0.0000 15441.1556 -72199.6522 296.5610 -87640.8077 -72157.4103 297.0337 -408.6459 -373.5564 256473.6171 -93.4270 -93.3550
TCL: namdcph) Proposal rejected.
TCL: Running for 500 steps without repeating first step
TCL: namdcph) Proposal rejected.
TCL: Running for 500 steps without repeating first step
ETITLE: TS BOND ANGLE DIHED IMPRP ELECT VDW BOUNDARY MISC KINETIC TOTAL TEMP POTENTIAL TOTAL3 TEMPAVG PRESSURE GPRESSURE VOLUME PRESSAVG GPRESSAVG
ENERGY: 25000 166.9128 491.2298 462.1972 33.7532 -97053.0413 8207.2412 0.0000 0.0000 15249.4856 -72442.2214 292.8798 -87691.7071 -72410.4198 297.1962 -359.0653 -322.7387 256473.6171 -180.5901 -180.6450
TCL: namdcph) Proposal rejected.
TCL: Running for 500 steps without repeating first step
TCL: namdcph) Proposal rejected.
TCL: Running for 500 steps without repeating first step
ETITLE: TS BOND ANGLE DIHED IMPRP ELECT VDW BOUNDARY MISC KINETIC TOTAL TEMP POTENTIAL TOTAL3 TEMPAVG PRESSURE GPRESSURE VOLUME PRESSAVG GPRESSAVG
ENERGY: 26000 164.6947 470.7533 461.8222 37.1847 -97707.1829 8659.2188 0.0000 0.0000 15454.7833 -72458.7259 296.8227 -87913.5092 -72422.0206 295.6066 -13.2813 21.1361 256473.6171 -234.6596 -234.6918
TCL: namdcph) Proposal rejected.
TCL: Running for 500 steps without repeating first step
TCL: namdcph) Proposal accepted, attemping a switch.
TCL: Setting parameter outputEnergies to 75000
TCL: Setting parameter dcdFreq to 0
TCL: Setting parameter firstTimestep to 0
TCL: Setting parameter alch to on
Info: NONBONDED TABLE R-SQUARED SPACING: 0.0625
Info: NONBONDED TABLE SIZE: 769 POINTS
TCL: Writing to files with basename 12/namdcph.md.
TCL: cphpsfgen) creating new alchemical side chain for PP1:936:HIS
TCL: Reloading molecular structure from file 12/namdcph.sw.psf and pdb file 12/namdcph.sw.pdb
Info: READING EXTRA BONDS FILE 12/namdcph.sw.extrabonds
Info: READ 12 EXTRA BONDS
Info: To read alchdata from file: coordinate pdb file (default)
Info: To read alchflag data from column: 5
Info: LONG-RANGE LJ: APPLYING ANALYTICAL CORRECTIONS TO ENERGY AND PRESSURE
Info: LONG-RANGE LJ: AVERAGE A0 AND B0 COEFFICIENTS 71003.9 AND 74.6249
Info: LONG-RANGE LJ: AVERAGE A1 AND B1 COEFFICIENTS 71003.9 AND 74.6249
Info: STRUCTURE SUMMARY:
Info: 25976 ATOMS
Info: 17592 BONDS
Info: 9935 ANGLES
Info: 2317 DIHEDRALS
Info: 189 IMPROPERS
Info: 54 CROSSTERMS
Info: 0 EXCLUSIONS
Info: 25495 RIGID BONDS
Info: ALCH: 12 ATOMS TO DISAPPEAR IN FINAL STATE
Info: ALCH: 12 ATOMS TO APPEAR IN FINAL STATE
Info: ALCH: 6 DIHEDRALS LINKING INITIAL AND FINAL ATOMS DELETED
Info: 52433 DEGREES OF FREEDOM
Info: 8830 HYDROGEN GROUPS
Info: 4 ATOMS IN LARGEST HYDROGEN GROUP
Info: 8830 MIGRATION GROUPS
Info: 4 ATOMS IN LARGEST MIGRATION GROUP
Info: TOTAL MASS = 158013 amu
Info: TOTAL CHARGE = -4 e
Info: MASS DENSITY = 1.02308 g/cm^3
Info: ATOM DENSITY = 0.101281 atoms/A^3
Info: ADDED 29822 IMPLICIT EXCLUSIONS
Info: NONBONDED TABLE R-SQUARED SPACING: 0.0625
Info: NONBONDED TABLE SIZE: 769 POINTS
TCL: Reinitializing atom data from files with basename 12/namdcph.sw
Info: REMOVING COM VELOCITY -0.00383585 -0.0192039 0.0151384
TCL: Running for 75000 steps
ETITLE: TS BOND ANGLE DIHED IMPRP ELECT VDW BOUNDARY MISC KINETIC TOTAL TEMP POTENTIAL TOTAL3 TEMPAVG PRESSURE GPRESSURE VOLUME PRESSAVG GPRESSAVG
ENERGY: 0 158.0646 500.6066 461.5930 36.3857 -97451.0038 8477.2392 0.0000 0.0000 15569.0288 -72248.0861 298.8458 -87817.1148 -72213.3454 297.1360 -219.1725 -187.1768 256473.6171 -46.9299 -46.9015
ENERGY: 75000 186.8554 488.5320 457.0464 34.7074 -97556.2317 8545.2533 0.0000 0.0000 15675.8093 -72168.0280 300.8955 -87843.8373 -72132.4733 297.1225 14.3119 46.6604 256473.6171 -185.1025 -185.1008
TCL: Setting parameter outputEnergies to 1000
TCL: Setting parameter dcdFreq to 1000
TCL: namdcph) PP1:936:HIS:E:D WorkCorr   -15.8000 CorrWork     0.7135
TCL: Setting parameter outputEnergies to 1000
TCL: Setting parameter dcdFreq to 1000
TCL: Setting parameter firstTimestep to 26500
TCL: namdcph) Switch rejected!
TCL: Setting parameter alch to off
Info: NONBONDED TABLE R-SQUARED SPACING: 0.0625
Info: NONBONDED TABLE SIZE: 769 POINTS
TCL: namdcph) clearing extraBondsFile 12/namdcph.sw.extrabonds
TCL: Reloading molecular structure from file 12/namdcph.md.psf and pdb file 12/namdcph.md.pdb
Info: READING EXTRA BONDS FILE 12/namdcph.sw.extrabonds
Info: LONG-RANGE LJ: APPLYING ANALYTICAL CORRECTIONS TO ENERGY AND PRESSURE
Info: LONG-RANGE LJ: AVERAGE A AND B COEFFICIENTS 71003.9 AND 74.6249
Info: STRUCTURE SUMMARY:
Info: 25964 ATOMS
Info: 17567 BONDS
Info: 9912 ANGLES
Info: 2278 DIHEDRALS
Info: 183 IMPROPERS
Info: 54 CROSSTERMS
Info: 0 EXCLUSIONS
Info: 25489 RIGID BONDS
Info: 52403 DEGREES OF FREEDOM
Info: 8824 HYDROGEN GROUPS
Info: 4 ATOMS IN LARGEST HYDROGEN GROUP
Info: 8824 MIGRATION GROUPS
Info: 4 ATOMS IN LARGEST MIGRATION GROUP
Info: TOTAL MASS = 157931 amu
Info: TOTAL CHARGE = -4 e
Info: MASS DENSITY = 1.02255 g/cm^3
Info: ATOM DENSITY = 0.101235 atoms/A^3
Info: ADDED 29751 IMPLICIT EXCLUSIONS
Info: NONBONDED TABLE R-SQUARED SPACING: 0.0625
Info: NONBONDED TABLE SIZE: 769 POINTS
TCL: Reinitializing atom data from files with basename 12/namdcph.md
Info: REMOVING COM VELOCITY -0.00421237 -0.0194383 0.0151716
TCL: Running for 500 steps
ETITLE: TS BOND ANGLE DIHED IMPRP ELECT VDW BOUNDARY MISC KINETIC TOTAL TEMP POTENTIAL TOTAL3 TEMPAVG PRESSURE GPRESSURE VOLUME PRESSAVG GPRESSAVG
ENERGY: 27000 154.8381 511.0359 461.4250 25.6313 -97090.8691 8271.0758 0.0000 0.0000 15431.4134 -72235.4494 296.3739 -87666.8629 -72197.9375 296.1186 -411.9460 -373.4600 256473.6171 -127.7664 -127.6363
TCL: namdcph) Proposal rejected.
TCL: Running for 500 steps without repeating first step
TCL: namdcph) Proposal rejected.
TCL: Running for 500 steps without repeating first step
ETITLE: TS BOND ANGLE DIHED IMPRP ELECT VDW BOUNDARY MISC KINETIC TOTAL TEMP POTENTIAL TOTAL3 TEMPAVG PRESSURE GPRESSURE VOLUME PRESSAVG GPRESSAVG
ENERGY: 28000 150.1918 502.7645 470.7103 32.5668 -97103.6698 8402.8734 0.0000 0.0000 15385.0884 -72159.4745 295.4842 -87544.5629 -72116.8289 296.9648 -138.9910 -107.8903 256473.6171 -74.5206 -74.6494
TCL: namdcph) Proposal rejected.
TCL: Running for 500 steps without repeating first step
TCL: namdcph) Proposal accepted, attemping a switch.
TCL: Setting parameter outputEnergies to 75000
TCL: Setting parameter dcdFreq to 0
TCL: Setting parameter firstTimestep to 0
TCL: Setting parameter alch to on
Info: NONBONDED TABLE R-SQUARED SPACING: 0.0625
Info: NONBONDED TABLE SIZE: 769 POINTS
TCL: Writing to files with basename 12/namdcph.md.
TCL: cphpsfgen) creating new alchemical side chain for PP1:936:HIS
TCL: Reloading molecular structure from file 12/namdcph.sw.psf and pdb file 12/namdcph.sw.pdb
Info: READING EXTRA BONDS FILE 12/namdcph.sw.extrabonds
Info: READ 12 EXTRA BONDS
Info: To read alchdata from file: coordinate pdb file (default)
Info: To read alchflag data from column: 5
Info: LONG-RANGE LJ: APPLYING ANALYTICAL CORRECTIONS TO ENERGY AND PRESSURE
Info: LONG-RANGE LJ: AVERAGE A0 AND B0 COEFFICIENTS 71003.9 AND 74.6249
Info: LONG-RANGE LJ: AVERAGE A1 AND B1 COEFFICIENTS 71003.9 AND 74.6249
Info: STRUCTURE SUMMARY:
Info: 25976 ATOMS
Info: 17592 BONDS
Info: 9935 ANGLES
Info: 2317 DIHEDRALS
Info: 189 IMPROPERS
Info: 54 CROSSTERMS
Info: 0 EXCLUSIONS
Info: 25495 RIGID BONDS
Info: ALCH: 12 ATOMS TO DISAPPEAR IN FINAL STATE
Info: ALCH: 12 ATOMS TO APPEAR IN FINAL STATE
Info: ALCH: 6 DIHEDRALS LINKING INITIAL AND FINAL ATOMS DELETED
Info: 52433 DEGREES OF FREEDOM
Info: 8830 HYDROGEN GROUPS
Info: 4 ATOMS IN LARGEST HYDROGEN GROUP
Info: 8830 MIGRATION GROUPS
Info: 4 ATOMS IN LARGEST MIGRATION GROUP
Info: TOTAL MASS = 158013 amu
Info: TOTAL CHARGE = -4 e
Info: MASS DENSITY = 1.02308 g/cm^3
Info: ATOM DENSITY = 0.101281 atoms/A^3
Info: ADDED 29822 IMPLICIT EXCLUSIONS
Info: NONBONDED TABLE R-SQUARED SPACING: 0.0625
Info: NONBONDED TABLE SIZE: 769 POINTS
TCL: Reinitializing atom data from files with basename 12/namdcph.sw
Info: REMOVING COM VELOCITY 0.0370899 0.126637 -0.0527484
TCL: Running for 75000 steps
ETITLE: TS BOND ANGLE DIHED IMPRP ELECT VDW BOUNDARY MISC KINETIC TOTAL TEMP POTENTIAL TOTAL3 TEMPAVG PRESSURE GPRESSURE VOLUME PRESSAVG GPRESSAVG
ENERGY: 0 155.3385 514.3501 466.1050 32.8244 -97279.4593 8488.2762 0.0000 0.0000 15616.2673 -72006.2978 299.7526 -87622.5651 -71971.0001 297.9613 -104.2642 -73.0062 256473.6171 -236.8237 -236.7143
ENERGY: 75000 167.1961 461.0842 468.6733 33.8645 -96924.7214 8204.9939 0.0000 0.0000 15364.6396 -72224.2699 294.9226 -87588.9095 -72183.3289 297.4095 -394.8531 -359.7954 256473.6171 -189.4905 -189.4715
TCL: Setting parameter outputEnergies to 1000
TCL: Setting parameter dcdFreq to 1000
TCL: namdcph) PP1:936:HIS:E:D WorkCorr   -15.8000 CorrWork    -0.4022
TCL: Setting parameter outputEnergies to 1000
TCL: Setting parameter dcdFreq to 1000
TCL: Setting parameter firstTimestep to 28500
TCL: namdcph) Switch accepted!
TCL: Writing to files with basename 12/namdcph.sw.
TCL: cphpsfgen) merging alchemical sidechains for PP1:936:HIS
TCL: Setting parameter alch to off
Info: NONBONDED TABLE R-SQUARED SPACING: 0.0625
Info: NONBONDED TABLE SIZE: 769 POINTS
TCL: namdcph) clearing extraBondsFile 12/namdcph.sw.extrabonds
TCL: Reloading molecular structure from file 12/namdcph.md.psf and pdb file 12/namdcph.md.pdb
Info: READING EXTRA BONDS FILE 12/namdcph.sw.extrabonds
Info: LONG-RANGE LJ: APPLYING ANALYTICAL CORRECTIONS TO ENERGY AND PRESSURE
Info: LONG-RANGE LJ: AVERAGE A AND B COEFFICIENTS 71003.9 AND 74.6249
Info: STRUCTURE SUMMARY:
Info: 25964 ATOMS
Info: 17567 BONDS
Info: 9912 ANGLES
Info: 2278 DIHEDRALS
Info: 183 IMPROPERS
Info: 54 CROSSTERMS
Info: 0 EXCLUSIONS
Info: 25489 RIGID BONDS
Info: 52403 DEGREES OF FREEDOM
Info: 8824 HYDROGEN GROUPS
Info: 4 ATOMS IN LARGEST HYDROGEN GROUP
Info: 8824 MIGRATION GROUPS
Info: 4 ATOMS IN LARGEST MIGRATION GROUP
Info: TOTAL MASS = 157931 amu
Info: TOTAL CHARGE = -4 e
Info: MASS DENSITY = 1.02255 g/cm^3
Info: ATOM DENSITY = 0.101235 atoms/A^3
Info: ADDED 29751 IMPLICIT EXCLUSIONS
Info: NONBONDED TABLE R-SQUARED SPACING: 0.0625
Info: NONBONDED TABLE SIZE: 769 POINTS
TCL: Reinitializing atom data from files with basename 12/namdcph.md
Info: REMOVING COM VELOCITY 0.00618683 -0.0252127 0.00169355
TCL: Running for 500 steps
ETITLE: TS BOND ANGLE DIHED IMPRP ELECT VDW BOUNDARY MISC KINETIC TOTAL TEMP POTENTIAL TOTAL3 TEMPAVG PRESSURE GPRESSURE VOLUME PRESSAVG GPRESSAVG
ENERGY: 29000 171.5404 472.9664 458.7520 33.6097 -97162.1285 8393.9832 0.0000 0.0000 15421.8231 -72209.4537 296.1897 -87631.2768 -72172.1551 296.3589 -259.9133 -224.4457 256473.6171 -226.9064 -226.8566
TCL: namdcph) Proposal rejected.
TCL: Running for 500 steps without repeating first step
TCL: namdcph) Proposal rejected.
TCL: Running for 500 steps without repeating first step
ETITLE: TS BOND ANGLE DIHED IMPRP ELECT VDW BOUNDARY MISC KINETIC TOTAL TEMP POTENTIAL TOTAL3 TEMPAVG PRESSURE GPRESSURE VOLUME PRESSAVG GPRESSAVG
ENERGY: 30000 158.7092 502.8605 462.7608 33.6315 -97185.4780 8449.5807 0.0000 0.0000 15265.6764 -72312.2590 293.1908 -87577.9354 -72280.5231 296.5692 -216.5119 -184.2250 256473.6171 -219.5512 -219.6511
TCL: namdcph) Proposal rejected.
TCL: Running for 500 steps without repeating first step
TCL: namdcph) Proposal rejected.
TCL: Running for 500 steps without repeating first step
ETITLE: TS BOND ANGLE DIHED IMPRP ELECT VDW BOUNDARY MISC KINETIC TOTAL TEMP POTENTIAL TOTAL3 TEMPAVG PRESSURE GPRESSURE VOLUME PRESSAVG GPRESSAVG
ENERGY: 31000 170.7638 465.7156 467.9443 31.9103 -97155.1447 8465.6025 0.0000 0.0000 15336.4218 -72216.7863 294.5495 -87553.2081 -72182.2374 296.6427 -214.9677 -180.0308 256473.6171 -106.4790 -106.5557
TCL: namdcph) Proposal rejected.
TCL: Running for 500 steps without repeating first step
TCL: namdcph) Proposal rejected.
TCL: Running for 500 steps without repeating first step
ETITLE: TS BOND ANGLE DIHED IMPRP ELECT VDW BOUNDARY MISC KINETIC TOTAL TEMP POTENTIAL TOTAL3 TEMPAVG PRESSURE GPRESSURE VOLUME PRESSAVG GPRESSAVG
ENERGY: 32000 172.6480 486.9819 472.9509 34.7306 -97108.0347 8424.5207 0.0000 0.0000 15504.0539 -72012.1487 297.7690 -87516.2027 -71969.7539 297.5881 -144.8567 -111.0016 256473.6171 -148.1747 -148.2298
TCL: namdcph) Proposal rejected.
TCL: Running for 500 steps without repeating first step
TCL: namdcph) Proposal rejected.
TCL: Running for 500 steps without repeating first step
Info: NONBONDED TABLE R-SQUARED SPACING: 0.0625
Info: NONBONDED TABLE SIZE: 769 POINTS
Info: READING EXTRA BONDS FILE 12/namdcph.sw.extrabonds
Info: READ 12 EXTRA BONDS
Info: To read alchdata from file: coordinate pdb file (default)
Info: To read alchflag data from column: 5
Info: LONG-RANGE LJ: APPLYING ANALYTICAL CORRECTIONS TO ENERGY AND PRESSURE
Info: LONG-RANGE LJ: AVERAGE A0 AND B0 COEFFICIENTS 71003.9 AND 74.6249
Info: LONG-RANGE LJ: AVERAGE A1 AND B1 COEFFICIENTS 71003.9 AND 74.6249
Info: STRUCTURE SUMMARY:
Info: 25976 ATOMS
Info: 17592 BONDS
Info: 9935 ANGLES
Info: 2317 DIHEDRALS
Info: 189 IMPROPERS
Info: 54 CROSSTERMS
Info: 0 EXCLUSIONS
Info: 25495 RIGID BONDS
Info: ALCH: 12 ATOMS TO DISAPPEAR IN FINAL STATE
Info: ALCH: 12 ATOMS TO APPEAR IN FINAL STATE
Info: ALCH: 6 DIHEDRALS LINKING INITIAL AND FINAL ATOMS DELETED
Info: 52433 DEGREES OF FREEDOM
Info: 8830 HYDROGEN GROUPS
Info: 4 ATOMS IN LARGEST HYDROGEN GROUP
Info: 8830 MIGRATION GROUPS
Info: 4 ATOMS IN LARGEST MIGRATION GROUP
Info: TOTAL MASS = 158013 amu
Info: TOTAL CHARGE = -4 e
Info: MASS DENSITY = 1.02308 g/cm^3
Info: ATOM DENSITY = 0.101281 atoms/A^3
Info: ADDED 29822 IMPLICIT EXCLUSIONS
Info: NONBONDED TABLE R-SQUARED SPACING: 0.0625
Info: NONBONDED TABLE SIZE: 769 POINTS
Info: REMOVING COM VELOCITY -0.018707 -0.00969069 -0.00374166
Info: NONBONDED TABLE R-SQUARED SPACING: 0.0625
Info: NONBONDED TABLE SIZE: 769 POINTS
Info: READING EXTRA BONDS FILE 12/namdcph.sw.extrabonds
Info: LONG-RANGE LJ: APPLYING ANALYTICAL CORRECTIONS TO ENERGY AND PRESSURE
Info: LONG-RANGE LJ: AVERAGE A AND B COEFFICIENTS 71003.9 AND 74.6249
Info: STRUCTURE SUMMARY:
Info: 25964 ATOMS
Info: 17567 BONDS
Info: 9912 ANGLES
Info: 2278 DIHEDRALS
Info: 183 IMPROPERS
Info: 54 CROSSTERMS
Info: 0 EXCLUSIONS
Info: 25489 RIGID BONDS
Info: 52403 DEGREES OF FREEDOM
Info: 8824 HYDROGEN GROUPS
Info: 4 ATOMS IN LARGEST HYDROGEN GROUP
Info: 8824 MIGRATION GROUPS
Info: 4 ATOMS IN LARGEST MIGRATION GROUP
Info: TOTAL MASS = 157931 amu
Info: TOTAL CHARGE = -4 e
Info: MASS DENSITY = 1.02255 g/cm^3
Info: ATOM DENSITY = 0.101235 atoms/A^3
Info: ADDED 29751 IMPLICIT EXCLUSIONS
Info: NONBONDED TABLE R-SQUARED SPACING: 0.0625
Info: NONBONDED TABLE SIZE: 769 POINTS
Info: REMOVING COM VELOCITY -0.0198691 -0.0104083 -0.00465868
Info: NONBONDED TABLE R-SQUARED SPACING: 0.0625
Info: NONBONDED TABLE SIZE: 769 POINTS
Info: READING EXTRA BONDS FILE 12/namdcph.sw.extrabonds
Info: READ 12 EXTRA BONDS
Info: To read alchdata from file: coordinate pdb file (default)
Info: To read alchflag data from column: 5
Info: LONG-RANGE LJ: APPLYING ANALYTICAL CORRECTIONS TO ENERGY AND PRESSURE
Info: LONG-RANGE LJ: AVERAGE A0 AND B0 COEFFICIENTS 71003.9 AND 74.6249
Info: LONG-RANGE LJ: AVERAGE A1 AND B1 COEFFICIENTS 71003.9 AND 74.6249
Info: STRUCTURE SUMMARY:
Info: 25976 ATOMS
Info: 17592 BONDS
Info: 9935 ANGLES
Info: 2317 DIHEDRALS
Info: 189 IMPROPERS
Info: 54 CROSSTERMS
Info: 0 EXCLUSIONS
Info: 25495 RIGID BONDS
Info: ALCH: 12 ATOMS TO DISAPPEAR IN FINAL STATE
Info: ALCH: 12 ATOMS TO APPEAR IN FINAL STATE
Info: ALCH: 6 DIHEDRALS LINKING INITIAL AND FINAL ATOMS DELETED
Info: 52433 DEGREES OF FREEDOM
Info: 8830 HYDROGEN GROUPS
Info: 4 ATOMS IN LARGEST HYDROGEN GROUP
Info: 8830 MIGRATION GROUPS
Info: 4 ATOMS IN LARGEST MIGRATION GROUP
Info: TOTAL MASS = 158013 amu
Info: TOTAL CHARGE = -4 e
Info: MASS DENSITY = 1.02308 g/cm^3
Info: ATOM DENSITY = 0.101281 atoms/A^3
Info: ADDED 29822 IMPLICIT EXCLUSIONS
Info: NONBONDED TABLE R-SQUARED SPACING: 0.0625
Info: NONBONDED TABLE SIZE: 769 POINTS
Info: REMOVING COM VELOCITY 0.00732982 0.0367465 0.0841115
Info: NONBONDED TABLE R-SQUARED SPACING: 0.0625
Info: NONBONDED TABLE SIZE: 769 POINTS
Info: READING EXTRA BONDS FILE 12/namdcph.sw.extrabonds
Info: LONG-RANGE LJ: APPLYING ANALYTICAL CORRECTIONS TO ENERGY AND PRESSURE
Info: LONG-RANGE LJ: AVERAGE A AND B COEFFICIENTS 71003.9 AND 74.6249
Info: STRUCTURE SUMMARY:
Info: 25964 ATOMS
Info: 17567 BONDS
Info: 9912 ANGLES
Info: 2278 DIHEDRALS
Info: 183 IMPROPERS
Info: 54 CROSSTERMS
Info: 0 EXCLUSIONS
Info: 25489 RIGID BONDS
Info: 52403 DEGREES OF FREEDOM
Info: 8824 HYDROGEN GROUPS
Info: 4 ATOMS IN LARGEST HYDROGEN GROUP
Info: 8824 MIGRATION GROUPS
Info: 4 ATOMS IN LARGEST MIGRATION GROUP
Info: TOTAL MASS = 157931 amu
Info: TOTAL CHARGE = -4 e
Info: MASS DENSITY = 1.02255 g/cm^3
Info: ATOM DENSITY = 0.101235 atoms/A^3
Info: ADDED 29751 IMPLICIT EXCLUSIONS
Info: NONBONDED TABLE R-SQUARED SPACING: 0.0625
Info: NONBONDED TABLE SIZE: 769 POINTS
Info: REMOVING COM VELOCITY 0.00808882 0.0367881 0.0852709
Info: NONBONDED TABLE R-SQUARED SPACING: 0.0625
Info: NONBONDED TABLE SIZE: 769 POINTS
Info: READING EXTRA BONDS FILE 12/namdcph.sw.extrabonds
Info: READ 12 EXTRA BONDS
Info: To read alchdata from file: coordinate pdb file (default)
Info: To read alchflag data from column: 5
Info: LONG-RANGE LJ: APPLYING ANALYTICAL CORRECTIONS TO ENERGY AND PRESSURE
Info: LONG-RANGE LJ: AVERAGE A0 AND B0 COEFFICIENTS 71003.9 AND 74.6249
Info: LONG-RANGE LJ: AVERAGE A1 AND B1 COEFFICIENTS 71003.9 AND 74.6249
Info: STRUCTURE SUMMARY:
Info: 25976 ATOMS
Info: 17592 BONDS
Info: 9935 ANGLES
Info: 2317 DIHEDRALS
Info: 189 IMPROPERS
Info: 54 CROSSTERMS
Info: 0 EXCLUSIONS
Info: 25495 RIGID BONDS
Info: ALCH: 12 ATOMS TO DISAPPEAR IN FINAL STATE
Info: ALCH: 12 ATOMS TO APPEAR IN FINAL STATE
Info: ALCH: 6 DIHEDRALS LINKING INITIAL AND FINAL ATOMS DELETED
Info: 52433 DEGREES OF FREEDOM
Info: 8830 HYDROGEN GROUPS
Info: 4 ATOMS IN LARGEST HYDROGEN GROUP
Info: 8830 MIGRATION GROUPS
Info: 4 ATOMS IN LARGEST MIGRATION GROUP
Info: TOTAL MASS = 158013 amu
Info: TOTAL CHARGE = -4 e
Info: MASS DENSITY = 1.02308 g/cm^3
Info: ATOM DENSITY = 0.101281 atoms/A^3
Info: ADDED 29822 IMPLICIT EXCLUSIONS
Info: NONBONDED TABLE R-SQUARED SPACING: 0.0625
Info: NONBONDED TABLE SIZE: 769 POINTS
Info: REMOVING COM VELOCITY -0.064251 0.0343997 0.0314998
Info: NONBONDED TABLE R-SQUARED SPACING: 0.0625
Info: NONBONDED TABLE SIZE: 769 POINTS
Info: READING EXTRA BONDS FILE 12/namdcph.sw.extrabonds
Info: LONG-RANGE LJ: APPLYING ANALYTICAL CORRECTIONS TO ENERGY AND PRESSURE
Info: LONG-RANGE LJ: AVERAGE A AND B COEFFICIENTS 71003.9 AND 74.6249
Info: STRUCTURE SUMMARY:
Info: 25964 ATOMS
Info: 17567 BONDS
Info: 9912 ANGLES
Info: 2278 DIHEDRALS
Info: 183 IMPROPERS
Info: 54 CROSSTERMS
Info: 0 EXCLUSIONS
Info: 25489 RIGID BONDS
Info: 52403 DEGREES OF FREEDOM
Info: 8824 HYDROGEN GROUPS
Info: 4 ATOMS IN LARGEST HYDROGEN GROUP
Info: 8824 MIGRATION GROUPS
Info: 4 ATOMS IN LARGEST MIGRATION GROUP
Info: TOTAL MASS = 157931 amu
Info: TOTAL CHARGE = -4 e
Info: MASS DENSITY = 1.02255 g/cm^3
Info: ATOM DENSITY = 0.101235 atoms/A^3
Info: ADDED 29751 IMPLICIT EXCLUSIONS
Info: NONBONDED TABLE R-SQUARED SPACING: 0.0625
Info: NONBONDED TABLE SIZE: 769 POINTS
Info: REMOVING COM VELOCITY -0.0305479 0.0285561 0.0156885
Info: NONBONDED TABLE R-SQUARED SPACING: 0.0625
Info: NONBONDED TABLE SIZE: 769 POINTS
Info: READING EXTRA BONDS FILE 12/namdcph.sw.extrabonds
Info: READ 12 EXTRA BONDS
Info: To read alchdata from file: coordinate pdb file (default)
Info: To read alchflag data from column: 5
Info: LONG-RANGE LJ: APPLYING ANALYTICAL CORRECTIONS TO ENERGY AND PRESSURE
Info: LONG-RANGE LJ: AVERAGE A0 AND B0 COEFFICIENTS 71003.9 AND 74.6249
Info: LONG-RANGE LJ: AVERAGE A1 AND B1 COEFFICIENTS 71003.9 AND 74.6249
Info: STRUCTURE SUMMARY:
Info: 25976 ATOMS
Info: 17592 BONDS
Info: 9935 ANGLES
Info: 2317 DIHEDRALS
Info: 189 IMPROPERS
Info: 54 CROSSTERMS
Info: 0 EXCLUSIONS
Info: 25495 RIGID BONDS
Info: ALCH: 12 ATOMS TO DISAPPEAR IN FINAL STATE
Info: ALCH: 12 ATOMS TO APPEAR IN FINAL STATE
Info: ALCH: 6 DIHEDRALS LINKING INITIAL AND FINAL ATOMS DELETED
Info: 52433 DEGREES OF FREEDOM
Info: 8830 HYDROGEN GROUPS
Info: 4 ATOMS IN LARGEST HYDROGEN GROUP
Info: 8830 MIGRATION GROUPS
Info: 4 ATOMS IN LARGEST MIGRATION GROUP
Info: TOTAL MASS = 158013 amu
Info: TOTAL CHARGE = -4 e
Info: MASS DENSITY = 1.02308 g/cm^3
Info: ATOM DENSITY = 0.101281 atoms/A^3
Info: ADDED 29822 IMPLICIT EXCLUSIONS
Info: NONBONDED TABLE R-SQUARED SPACING: 0.0625
Info: NONBONDED TABLE SIZE: 769 POINTS
Info: REMOVING COM VELOCITY 0.0130283 0.0147504 -0.0341457
Info: NONBONDED TABLE R-SQUARED SPACING: 0.0625
Info: NONBONDED TABLE SIZE: 769 POINTS
Info: READING EXTRA BONDS FILE 12/namdcph.sw.extrabonds
Info: LONG-RANGE LJ: APPLYING ANALYTICAL CORRECTIONS TO ENERGY AND PRESSURE
Info: LONG-RANGE LJ: AVERAGE A AND B COEFFICIENTS 71003.9 AND 74.6249
Info: STRUCTURE SUMMARY:
Info: 25964 ATOMS
Info: 17567 BONDS
Info: 9912 ANGLES
Info: 2278 DIHEDRALS
Info: 183 IMPROPERS
Info: 54 CROSSTERMS
Info: 0 EXCLUSIONS
Info: 25489 RIGID BONDS
Info: 52403 DEGREES OF FREEDOM
Info: 8824 HYDROGEN GROUPS
Info: 4 ATOMS IN LARGEST HYDROGEN GROUP
Info: 8824 MIGRATION GROUPS
Info: 4 ATOMS IN LARGEST MIGRATION GROUP
Info: TOTAL MASS = 157931 amu
Info: TOTAL CHARGE = -4 e
Info: MASS DENSITY = 1.02255 g/cm^3
Info: ATOM DENSITY = 0.101235 atoms/A^3
Info: ADDED 29751 IMPLICIT EXCLUSIONS
Info: NONBONDED TABLE R-SQUARED SPACING: 0.0625
Info: NONBONDED TABLE SIZE: 769 POINTS
Info: REMOVING COM VELOCITY -0.00743435 0.0444796 -0.0211744
Info: NONBONDED TABLE R-SQUARED SPACING: 0.0625
Info: NONBONDED TABLE SIZE: 769 POINTS
Info: READING EXTRA BONDS FILE 12/namdcph.sw.extrabonds
Info: READ 12 EXTRA BONDS
Info: To read alchdata from file: coordinate pdb file (default)
Info: To read alchflag data from column: 5
Info: LONG-RANGE LJ: APPLYING ANALYTICAL CORRECTIONS TO ENERGY AND PRESSURE
Info: LONG-RANGE LJ: AVERAGE A0 AND B0 COEFFICIENTS 71003.9 AND 74.6249
Info: LONG-RANGE LJ: AVERAGE A1 AND B1 COEFFICIENTS 71003.9 AND 74.6249
Info: STRUCTURE SUMMARY:
Info: 25976 ATOMS
Info: 17592 BONDS
Info: 9935 ANGLES
Info: 2317 DIHEDRALS
Info: 189 IMPROPERS
Info: 54 CROSSTERMS
Info: 0 EXCLUSIONS
Info: 25495 RIGID BONDS
Info: ALCH: 12 ATOMS TO DISAPPEAR IN FINAL STATE
Info: ALCH: 12 ATOMS TO APPEAR IN FINAL STATE
Info: ALCH: 6 DIHEDRALS LINKING INITIAL AND FINAL ATOMS DELETED
Info: 52433 DEGREES OF FREEDOM
Info: 8830 HYDROGEN GROUPS
Info: 4 ATOMS IN LARGEST HYDROGEN GROUP
Info: 8830 MIGRATION GROUPS
Info: 4 ATOMS IN LARGEST MIGRATION GROUP
Info: TOTAL MASS = 158013 amu
Info: TOTAL CHARGE = -4 e
Info: MASS DENSITY = 1.02308 g/cm^3
Info: ATOM DENSITY = 0.101281 atoms/A^3
Info: ADDED 29822 IMPLICIT EXCLUSIONS
Info: NONBONDED TABLE R-SQUARED SPACING: 0.0625
Info: NONBONDED TABLE SIZE: 769 POINTS
Info: REMOVING COM VELOCITY -0.0397498 0.000867296 0.0722425
Info: NONBONDED TABLE R-SQUARED SPACING: 0.0625
Info: NONBONDED TABLE SIZE: 769 POINTS
Info: READING EXTRA BONDS FILE 12/namdcph.sw.extrabonds
Info: LONG-RANGE LJ: APPLYING ANALYTICAL CORRECTIONS TO ENERGY AND PRESSURE
Info: LONG-RANGE LJ: AVERAGE A AND B COEFFICIENTS 71003.9 AND 74.6249
Info: STRUCTURE SUMMARY:
Info: 25964 ATOMS
Info: 17567 BONDS
Info: 9912 ANGLES
Info: 2278 DIHEDRALS
Info: 183 IMPROPERS
Info: 54 CROSSTERMS
Info: 0 EXCLUSIONS
Info: 25489 RIGID BONDS
Info: 52403 DEGREES OF FREEDOM
Info: 8824 HYDROGEN GROUPS
Info: 4 ATOMS IN LARGEST HYDROGEN GROUP
Info: 8824 MIGRATION GROUPS
Info: 4 ATOMS IN LARGEST MIGRATION GROUP
Info: TOTAL MASS = 157931 amu
Info: TOTAL CHARGE = -4 e
Info: MASS DENSITY = 1.02255 g/cm^3
Info: ATOM DENSITY = 0.101235 atoms/A^3
Info: ADDED 29751 IMPLICIT EXCLUSIONS
Info: NONBONDED TABLE R-SQUARED SPACING: 0.0625
Info: NONBONDED TABLE SIZE: 769 POINTS
Info: REMOVING COM VELOCITY -0.0408589 0.00164679 0.0726391
Info: NONBONDED TABLE R-SQUARED SPACING: 0.0625
Info: NONBONDED TABLE SIZE: 769 POINTS
Info: READING EXTRA BONDS FILE 12/namdcph.sw.extrabonds
Info: READ 12 EXTRA BONDS
Info: To read alchdata from file: coordinate pdb file (default)
Info: To read alchflag data from column: 5
Info: LONG-RANGE LJ: APPLYING ANALYTICAL CORRECTIONS TO ENERGY AND PRESSURE
Info: LONG-RANGE LJ: AVERAGE A0 AND B0 COEFFICIENTS 71003.9 AND 74.6249
Info: LONG-RANGE LJ: AVERAGE A1 AND B1 COEFFICIENTS 71003.9 AND 74.6249
Info: STRUCTURE SUMMARY:
Info: 25976 ATOMS
Info: 17592 BONDS
Info: 9935 ANGLES
Info: 2317 DIHEDRALS
Info: 189 IMPROPERS
Info: 54 CROSSTERMS
Info: 0 EXCLUSIONS
Info: 25495 RIGID BONDS
Info: ALCH: 12 ATOMS TO DISAPPEAR IN FINAL STATE
Info: ALCH: 12 ATOMS TO APPEAR IN FINAL STATE
Info: ALCH: 6 DIHEDRALS LINKING INITIAL AND FINAL ATOMS DELETED
Info: 52433 DEGREES OF FREEDOM
Info: 8830 HYDROGEN GROUPS
Info: 4 ATOMS IN LARGEST HYDROGEN GROUP
Info: 8830 MIGRATION GROUPS
Info: 4 ATOMS IN LARGEST MIGRATION GROUP
Info: TOTAL MASS = 158013 amu
Info: TOTAL CHARGE = -4 e
Info: MASS DENSITY = 1.02308 g/cm^3
Info: ATOM DENSITY = 0.101281 atoms/A^3
Info: ADDED 29822 IMPLICIT EXCLUSIONS
Info: NONBONDED TABLE R-SQUARED SPACING: 0.0625
Info: NONBONDED TABLE SIZE: 769 POINTS
Info: REMOVING COM VELOCITY -0.0518314 0.00279599 -0.00310722
Info: NONBONDED TABLE R-SQUARED SPACING: 0.0625
Info: NONBONDED TABLE SIZE: 769 POINTS
Info: READING EXTRA BONDS FILE 12/namdcph.sw.extrabonds
Info: LONG-RANGE LJ: APPLYING ANALYTICAL CORRECTIONS TO ENERGY AND PRESSURE
Info: LONG-RANGE LJ: AVERAGE A AND B COEFFICIENTS 71003.9 AND 74.6249
Info: STRUCTURE SUMMARY:
Info: 25964 ATOMS
Info: 17567 BONDS
Info: 9912 ANGLES
Info: 2278 DIHEDRALS
Info: 183 IMPROPERS
Info: 54 CROSSTERMS
Info: 0 EXCLUSIONS
Info: 25489 RIGID BONDS
Info: 52403 DEGREES OF FREEDOM
Info: 8824 HYDROGEN GROUPS
Info: 4 ATOMS IN LARGEST HYDROGEN GROUP
Info: 8824 MIGRATION GROUPS
Info: 4 ATOMS IN LARGEST MIGRATION GROUP
Info: TOTAL MASS = 157931 amu
Info: TOTAL CHARGE = -4 e
Info: MASS DENSITY = 1.02255 g/cm^3
Info: ATOM DENSITY = 0.101235 atoms/A^3
Info: ADDED 29751 IMPLICIT EXCLUSIONS
Info: NONBONDED TABLE R-SQUARED SPACING: 0.0625
Info: NONBONDED TABLE SIZE: 769 POINTS
Info: REMOVING COM VELOCITY -0.0518268 0.00283085 -0.00428818
Info: NONBONDED TABLE R-SQUARED SPACING: 0.0625
Info: NONBONDED TABLE SIZE: 769 POINTS
Info: READING EXTRA BONDS FILE 12/namdcph.sw.extrabonds
Info: READ 12 EXTRA BONDS
Info: To read alchdata from file: coordinate pdb file (default)
Info: To read alchflag data from column: 5
Info: LONG-RANGE LJ: APPLYING ANALYTICAL CORRECTIONS TO ENERGY AND PRESSURE
Info: LONG-RANGE LJ: AVERAGE A0 AND B0 COEFFICIENTS 71003.9 AND 74.6249
Info: LONG-RANGE LJ: AVERAGE A1 AND B1 COEFFICIENTS 71003.9 AND 74.6249
Info: STRUCTURE SUMMARY:
Info: 25976 ATOMS
Info: 17592 BONDS
Info: 9935 ANGLES
Info: 2317 DIHEDRALS
Info: 189 IMPROPERS
Info: 54 CROSSTERMS
Info: 0 EXCLUSIONS
Info: 25495 RIGID BONDS
Info: ALCH: 12 ATOMS TO DISAPPEAR IN FINAL STATE
Info: ALCH: 12 ATOMS TO APPEAR IN FINAL STATE
Info: ALCH: 6 DIHEDRALS LINKING INITIAL AND FINAL ATOMS DELETED
Info: 52433 DEGREES OF FREEDOM
Info: 8830 HYDROGEN GROUPS
Info: 4 ATOMS IN LARGEST HYDROGEN GROUP
Info: 8830 MIGRATION GROUPS
Info: 4 ATOMS IN LARGEST MIGRATION GROUP
Info: TOTAL MASS = 158013 amu
Info: TOTAL CHARGE = -4 e
Info: MASS DENSITY = 1.02308 g/cm^3
Info: ATOM DENSITY = 0.101281 atoms/A^3
Info: ADDED 29822 IMPLICIT EXCLUSIONS
Info: NONBONDED TABLE R-SQUARED SPACING: 0.0625
Info: NONBONDED TABLE SIZE: 769 POINTS
Info: REMOVING COM VELOCITY -0.00594058 -0.0630333 0.0454821
Info: NONBONDED TABLE R-SQUARED SPACING: 0.0625
Info: NONBONDED TABLE SIZE: 769 POINTS
Info: READING EXTRA BONDS FILE 12/namdcph.sw.extrabonds
Info: LONG-RANGE LJ: APPLYING ANALYTICAL CORRECTIONS TO ENERGY AND PRESSURE
Info: LONG-RANGE LJ: AVERAGE A AND B COEFFICIENTS 71003.9 AND 74.6249
Info: STRUCTURE SUMMARY:
Info: 25964 ATOMS
Info: 17567 BONDS
Info: 9912 ANGLES
Info: 2278 DIHEDRALS
Info: 183 IMPROPERS
Info: 54 CROSSTERMS
Info: 0 EXCLUSIONS
Info: 25489 RIGID BONDS
Info: 52403 DEGREES OF FREEDOM
Info: 8824 HYDROGEN GROUPS
Info: 4 ATOMS IN LARGEST HYDROGEN GROUP
Info: 8824 MIGRATION GROUPS
Info: 4 ATOMS IN LARGEST MIGRATION GROUP
Info: TOTAL MASS = 157931 amu
Info: TOTAL CHARGE = -4 e
Info: MASS DENSITY = 1.02255 g/cm^3
Info: ATOM DENSITY = 0.101235 atoms/A^3
Info: ADDED 29751 IMPLICIT EXCLUSIONS
Info: NONBONDED TABLE R-SQUARED SPACING: 0.0625
Info: NONBONDED TABLE SIZE: 769 POINTS
Info: REMOVING COM VELOCITY -0.0657732 -0.0131457 0.0310683
Info: NONBONDED TABLE R-SQUARED SPACING: 0.0625
Info: NONBONDED TABLE SIZE: 769 POINTS
Info: READING EXTRA BONDS FILE 12/namdcph.sw.extrabonds
Info: READ 12 EXTRA BONDS
Info: To read alchdata from file: coordinate pdb file (default)
Info: To read alchflag data from column: 5
Info: LONG-RANGE LJ: APPLYING ANALYTICAL CORRECTIONS TO ENERGY AND PRESSURE
Info: LONG-RANGE LJ: AVERAGE A0 AND B0 COEFFICIENTS 71003.9 AND 74.6249
Info: LONG-RANGE LJ: AVERAGE A1 AND B1 COEFFICIENTS 71003.9 AND 74.6249
Info: STRUCTURE SUMMARY:
Info: 25976 ATOMS
Info: 17592 BONDS
Info: 9935 ANGLES
Info: 2317 DIHEDRALS
Info: 189 IMPROPERS
Info: 54 CROSSTERMS
Info: 0 EXCLUSIONS
Info: 25495 RIGID BONDS
Info: ALCH: 12 ATOMS TO DISAPPEAR IN FINAL STATE
Info: ALCH: 12 ATOMS TO APPEAR IN FINAL STATE
Info: ALCH: 6 DIHEDRALS LINKING INITIAL AND FINAL ATOMS DELETED
Info: 52433 DEGREES OF FREEDOM
Info: 8830 HYDROGEN GROUPS
Info: 4 ATOMS IN LARGEST HYDROGEN GROUP
Info: 8830 MIGRATION GROUPS
Info: 4 ATOMS IN LARGEST MIGRATION GROUP
Info: TOTAL MASS = 158013 amu
Info: TOTAL CHARGE = -4 e
Info: MASS DENSITY = 1.02308 g/cm^3
Info: ATOM DENSITY = 0.101281 atoms/A^3
Info: ADDED 29822 IMPLICIT EXCLUSIONS
Info: NONBONDED TABLE R-SQUARED SPACING: 0.0625
Info: NONBONDED TABLE SIZE: 769 POINTS
Info: REMOVING COM VELOCITY 0.0463477 0.0274996 -0.0232146
Info: NONBONDED TABLE R-SQUARED SPACING: 0.0625
Info: NONBONDED TABLE SIZE: 769 POINTS
Info: READING EXTRA BONDS FILE 12/namdcph.sw.extrabonds
Info: LONG-RANGE LJ: APPLYING ANALYTICAL CORRECTIONS TO ENERGY AND PRESSURE
Info: LONG-RANGE LJ: AVERAGE A AND B COEFFICIENTS 71003.9 AND 74.6249
Info: STRUCTURE SUMMARY:
Info: 25964 ATOMS
Info: 17567 BONDS
Info: 9912 ANGLES
Info: 2278 DIHEDRALS
Info: 183 IMPROPERS
Info: 54 CROSSTERMS
Info: 0 EXCLUSIONS
Info: 25489 RIGID BONDS
Info: 52403 DEGREES OF FREEDOM
Info: 8824 HYDROGEN GROUPS
Info: 4 ATOMS IN LARGEST HYDROGEN GROUP
Info: 8824 MIGRATION GROUPS
Info: 4 ATOMS IN LARGEST MIGRATION GROUP
Info: TOTAL MASS = 157931 amu
Info: TOTAL CHARGE = -4 e
Info: MASS DENSITY = 1.02255 g/cm^3
Info: ATOM DENSITY = 0.101235 atoms/A^3
Info: ADDED 29751 IMPLICIT EXCLUSIONS
Info: NONBONDED TABLE R-SQUARED SPACING: 0.0625
Info: NONBONDED TABLE SIZE: 769 POINTS
Info: REMOVING COM VELOCITY 0.044393 0.028821 -0.0231315
Info: NONBONDED TABLE R-SQUARED SPACING: 0.0625
Info: NONBONDED TABLE SIZE: 769 POINTS
Info: READING EXTRA BONDS FILE 12/namdcph.sw.extrabonds
Info: READ 12 EXTRA BONDS
Info: To read alchdata from file: coordinate pdb file (default)
Info: To read alchflag data from column: 5
Info: LONG-RANGE LJ: APPLYING ANALYTICAL CORRECTIONS TO ENERGY AND PRESSURE
Info: LONG-RANGE LJ: AVERAGE A0 AND B0 COEFFICIENTS 71003.9 AND 74.6249
Info: LONG-RANGE LJ: AVERAGE A1 AND B1 COEFFICIENTS 71003.9 AND 74.6249
Info: STRUCTURE SUMMARY:
Info: 25976 ATOMS
Info: 17592 BONDS
Info: 9935 ANGLES
Info: 2317 DIHEDRALS
Info: 189 IMPROPERS
Info: 54 CROSSTERMS
Info: 0 EXCLUSIONS
Info: 25495 RIGID BONDS
Info: ALCH: 12 ATOMS TO DISAPPEAR IN FINAL STATE
Info: ALCH: 12 ATOMS TO APPEAR IN FINAL STATE
Info: ALCH: 6 DIHEDRALS LINKING INITIAL AND FINAL ATOMS DELETED
Info: 52433 DEGREES OF FREEDOM
Info: 8830 HYDROGEN GROUPS
Info: 4 ATOMS IN LARGEST HYDROGEN GROUP
Info: 8830 MIGRATION GROUPS
Info: 4 ATOMS IN LARGEST MIGRATION GROUP
Info: TOTAL MASS = 158013 amu
Info: TOTAL CHARGE = -4 e
Info: MASS DENSITY = 1.02308 g/cm^3
Info: ATOM DENSITY = 0.101281 atoms/A^3
Info: ADDED 29822 IMPLICIT EXCLUSIONS
Info: NONBONDED TABLE R-SQUARED SPACING: 0.0625
Info: NONBONDED TABLE SIZE: 769 POINTS
Info: REMOVING COM VELOCITY 0.0199682 0.0184772 0.0228764
Info: NONBONDED TABLE R-SQUARED SPACING: 0.0625
Info: NONBONDED TABLE SIZE: 769 POINTS
Info: READING EXTRA BONDS FILE 12/namdcph.sw.extrabonds
Info: LONG-RANGE LJ: APPLYING ANALYTICAL CORRECTIONS TO ENERGY AND PRESSURE
Info: LONG-RANGE LJ: AVERAGE A AND B COEFFICIENTS 71003.9 AND 74.6249
Info: STRUCTURE SUMMARY:
Info: 25964 ATOMS
Info: 17567 BONDS
Info: 9912 ANGLES
Info: 2278 DIHEDRALS
Info: 183 IMPROPERS
Info: 54 CROSSTERMS
Info: 0 EXCLUSIONS
Info: 25489 RIGID BONDS
Info: 52403 DEGREES OF FREEDOM
Info: 8824 HYDROGEN GROUPS
Info: 4 ATOMS IN LARGEST HYDROGEN GROUP
Info: 8824 MIGRATION GROUPS
Info: 4 ATOMS IN LARGEST MIGRATION GROUP
Info: TOTAL MASS = 157931 amu
Info: TOTAL CHARGE = -4 e
Info: MASS DENSITY = 1.02255 g/cm^3
Info: ATOM DENSITY = 0.101235 atoms/A^3
Info: ADDED 29751 IMPLICIT EXCLUSIONS
Info: NONBONDED TABLE R-SQUARED SPACING: 0.0625
Info: NONBONDED TABLE SIZE: 769 POINTS
Info: REMOVING COM VELOCITY -0.0194163 0.0450067 -0.0367491
Info: NONBONDED TABLE R-SQUARED SPACING: 0.0625
Info: NONBONDED TABLE SIZE: 769 POINTS
Info: READING EXTRA BONDS FILE 12/namdcph.sw.extrabonds
Info: READ 12 EXTRA BONDS
Info: To read alchdata from file: coordinate pdb file (default)
Info: To read alchflag data from column: 5
Info: LONG-RANGE LJ: APPLYING ANALYTICAL CORRECTIONS TO ENERGY AND PRESSURE
Info: LONG-RANGE LJ: AVERAGE A0 AND B0 COEFFICIENTS 71003.9 AND 74.6249
Info: LONG-RANGE LJ: AVERAGE A1 AND B1 COEFFICIENTS 71003.9 AND 74.6249
Info: STRUCTURE SUMMARY:
Info: 25976 ATOMS
Info: 17592 BONDS
Info: 9935 ANGLES
Info: 2317 DIHEDRALS
Info: 189 IMPROPERS
Info: 54 CROSSTERMS
Info: 0 EXCLUSIONS
Info: 25495 RIGID BONDS
Info: ALCH: 12 ATOMS TO DISAPPEAR IN FINAL STATE
Info: ALCH: 12 ATOMS TO APPEAR IN FINAL STATE
Info: ALCH: 6 DIHEDRALS LINKING INITIAL AND FINAL ATOMS DELETED
Info: 52433 DEGREES OF FREEDOM
Info: 8830 HYDROGEN GROUPS
Info: 4 ATOMS IN LARGEST HYDROGEN GROUP
Info: 8830 MIGRATION GROUPS
Info: 4 ATOMS IN LARGEST MIGRATION GROUP
Info: TOTAL MASS = 158013 amu
Info: TOTAL CHARGE = -4 e
Info: MASS DENSITY = 1.02308 g/cm^3
Info: ATOM DENSITY = 0.101281 atoms/A^3
Info: ADDED 29822 IMPLICIT EXCLUSIONS
Info: NONBONDED TABLE R-SQUARED SPACING: 0.0625
Info: NONBONDED TABLE SIZE: 769 POINTS
Info: REMOVING COM VELOCITY 0.0425528 0.0367577 0.0268476
Info: NONBONDED TABLE R-SQUARED SPACING: 0.0625
Info: NONBONDED TABLE SIZE: 769 POINTS
Info: READING EXTRA BONDS FILE 12/namdcph.sw.extrabonds
Info: LONG-RANGE LJ: APPLYING ANALYTICAL CORRECTIONS TO ENERGY AND PRESSURE
Info: LONG-RANGE LJ: AVERAGE A AND B COEFFICIENTS 71003.9 AND 74.6249
Info: STRUCTURE SUMMARY:
Info: 25964 ATOMS
Info: 17567 BONDS
Info: 9912 ANGLES
Info: 2278 DIHEDRALS
Info: 183 IMPROPERS
Info: 54 CROSSTERMS
Info: 0 EXCLUSIONS
Info: 25489 RIGID BONDS
Info: 52403 DEGREES OF FREEDOM
Info: 8824 HYDROGEN GROUPS
Info: 4 ATOMS IN LARGEST HYDROGEN GROUP
Info: 8824 MIGRATION GROUPS
Info: 4 ATOMS IN LARGEST MIGRATION GROUP
Info: TOTAL MASS = 157931 amu
Info: TOTAL CHARGE = -4 e
Info: MASS DENSITY = 1.02255 g/cm^3
Info: ATOM DENSITY = 0.101235 atoms/A^3
Info: ADDED 29751 IMPLICIT EXCLUSIONS
Info: NONBONDED TABLE R-SQUARED SPACING: 0.0625
Info: NONBONDED TABLE SIZE: 769 POINTS
Info: REMOVING COM VELOCITY 0.0430414 0.0371696 0.02744
Info: NONBONDED TABLE R-SQUARED SPACING: 0.0625
Info: NONBONDED TABLE SIZE: 769 POINTS
Info: READING EXTRA BONDS FILE 12/namdcph.sw.extrabonds
Info: READ 12 EXTRA BONDS
Info: To read alchdata from file: coordinate pdb file (default)
Info: To read alchflag data from column: 5
Info: LONG-RANGE LJ: APPLYING ANALYTICAL CORRECTIONS TO ENERGY AND PRESSURE
Info: LONG-RANGE LJ: AVERAGE A0 AND B0 COEFFICIENTS 71003.9 AND 74.6249
Info: LONG-RANGE LJ: AVERAGE A1 AND B1 COEFFICIENTS 71003.9 AND 74.6249
Info: STRUCTURE SUMMARY:
Info: 25976 ATOMS
Info: 17592 BONDS
Info: 9935 ANGLES
Info: 2317 DIHEDRALS
Info: 189 IMPROPERS
Info: 54 CROSSTERMS
Info: 0 EXCLUSIONS
Info: 25495 RIGID BONDS
Info: ALCH: 12 ATOMS TO DISAPPEAR IN FINAL STATE
Info: ALCH: 12 ATOMS TO APPEAR IN FINAL STATE
Info: ALCH: 6 DIHEDRALS LINKING INITIAL AND FINAL ATOMS DELETED
Info: 52433 DEGREES OF FREEDOM
Info: 8830 HYDROGEN GROUPS
Info: 4 ATOMS IN LARGEST HYDROGEN GROUP
Info: 8830 MIGRATION GROUPS
Info: 4 ATOMS IN LARGEST MIGRATION GROUP
Info: TOTAL MASS = 158013 amu
Info: TOTAL CHARGE = -4 e
Info: MASS DENSITY = 1.02308 g/cm^3
Info: ATOM DENSITY = 0.101281 atoms/A^3
Info: ADDED 29822 IMPLICIT EXCLUSIONS
Info: NONBONDED TABLE R-SQUARED SPACING: 0.0625
Info: NONBONDED TABLE SIZE: 769 POINTS
Info: REMOVING COM VELOCITY 2.34952e-05 -0.00635699 0.0671492
Info: NONBONDED TABLE R-SQUARED SPACING: 0.0625
Info: NONBONDED TABLE SIZE: 769 POINTS
Info: READING EXTRA BONDS FILE 12/namdcph.sw.extrabonds
Info: LONG-RANGE LJ: APPLYING ANALYTICAL CORRECTIONS TO ENERGY AND PRESSURE
Info: LONG-RANGE LJ: AVERAGE A AND B COEFFICIENTS 71003.9 AND 74.6249
Info: STRUCTURE SUMMARY:
Info: 25964 ATOMS
Info: 17567 BONDS
Info: 9912 ANGLES
Info: 2278 DIHEDRALS
Info: 183 IMPROPERS
Info: 54 CROSSTERMS
Info: 0 EXCLUSIONS
Info: 25489 RIGID BONDS
Info: 52403 DEGREES OF FREEDOM
Info: 8824 HYDROGEN GROUPS
Info: 4 ATOMS IN LARGEST HYDROGEN GROUP
Info: 8824 MIGRATION GROUPS
Info: 4 ATOMS IN LARGEST MIGRATION GROUP
Info: TOTAL MASS = 157931 amu
Info: TOTAL CHARGE = -4 e
Info: MASS DENSITY = 1.02255 g/cm^3
Info: ATOM DENSITY = 0.101235 atoms/A^3
Info: ADDED 29751 IMPLICIT EXCLUSIONS
Info: NONBONDED TABLE R-SQUARED SPACING: 0.0625
Info: NONBONDED TABLE SIZE: 769 POINTS
Info: REMOVING COM VELOCITY 0.00102338 -0.0058869 0.0675706
Info: NONBONDED TABLE R-SQUARED SPACING: 0.0625
Info: NONBONDED TABLE SIZE: 769 POINTS
Info: READING EXTRA BONDS FILE 12/namdcph.sw.extrabonds
Info: READ 12 EXTRA BONDS
Info: To read alchdata from file: coordinate pdb file (default)
Info: To read alchflag data from column: 5
Info: LONG-RANGE LJ: APPLYING ANALYTICAL CORRECTIONS TO ENERGY AND PRESSURE
Info: LONG-RANGE LJ: AVERAGE A0 AND B0 COEFFICIENTS 71003.9 AND 74.6249
Info: LONG-RANGE LJ: AVERAGE A1 AND B1 COEFFICIENTS 71003.9 AND 74.6249
Info: STRUCTURE SUMMARY:
Info: 25976 ATOMS
Info: 17592 BONDS
Info: 9935 ANGLES
Info: 2317 DIHEDRALS
Info: 189 IMPROPERS
Info: 54 CROSSTERMS
Info: 0 EXCLUSIONS
Info: 25495 RIGID BONDS
Info: ALCH: 12 ATOMS TO DISAPPEAR IN FINAL STATE
Info: ALCH: 12 ATOMS TO APPEAR IN FINAL STATE
Info: ALCH: 6 DIHEDRALS LINKING INITIAL AND FINAL ATOMS DELETED
Info: 52433 DEGREES OF FREEDOM
Info: 8830 HYDROGEN GROUPS
Info: 4 ATOMS IN LARGEST HYDROGEN GROUP
Info: 8830 MIGRATION GROUPS
Info: 4 ATOMS IN LARGEST MIGRATION GROUP
Info: TOTAL MASS = 158013 amu
Info: TOTAL CHARGE = -4 e
Info: MASS DENSITY = 1.02308 g/cm^3
Info: ATOM DENSITY = 0.101281 atoms/A^3
Info: ADDED 29822 IMPLICIT EXCLUSIONS
Info: NONBONDED TABLE R-SQUARED SPACING: 0.0625
Info: NONBONDED TABLE SIZE: 769 POINTS
Info: REMOVING COM VELOCITY -0.0324145 -0.0156353 -0.101405
Info: NONBONDED TABLE R-SQUARED SPACING: 0.0625
Info: NONBONDED TABLE SIZE: 769 POINTS
Info: READING EXTRA BONDS FILE 12/namdcph.sw.extrabonds
Info: LONG-RANGE LJ: APPLYING ANALYTICAL CORRECTIONS TO ENERGY AND PRESSURE
Info: LONG-RANGE LJ: AVERAGE A AND B COEFFICIENTS 71003.9 AND 74.6249
Info: STRUCTURE SUMMARY:
Info: 25964 ATOMS
Info: 17567 BONDS
Info: 9912 ANGLES
Info: 2278 DIHEDRALS
Info: 183 IMPROPERS
Info: 54 CROSSTERMS
Info: 0 EXCLUSIONS
Info: 25489 RIGID BONDS
Info: 52403 DEGREES OF FREEDOM
Info: 8824 HYDROGEN GROUPS
Info: 4 ATOMS IN LARGEST HYDROGEN GROUP
Info: 8824 MIGRATION GROUPS
Info: 4 ATOMS IN LARGEST MIGRATION GROUP
Info: TOTAL MASS = 157931 amu
Info: TOTAL CHARGE = -4 e
Info: MASS DENSITY = 1.02255 g/cm^3
Info: ATOM DENSITY = 0.101235 atoms/A^3
Info: ADDED 29751 IMPLICIT EXCLUSIONS
Info: NONBONDED TABLE R-SQUARED SPACING: 0.0625
Info: NONBONDED TABLE SIZE: 769 POINTS
Info: REMOVING COM VELOCITY 0.0102202 0.00488723 -0.0143327
Info: NONBONDED TABLE R-SQUARED SPACING: 0.0625
Info: NONBONDED TABLE SIZE: 769 POINTS
Info: READING EXTRA BONDS FILE 12/namdcph.sw.extrabonds
Info: READ 12 EXTRA BONDS
Info: To read alchdata from file: coordinate pdb file (default)
Info: To read alchflag data from column: 5
Info: LONG-RANGE LJ: APPLYING ANALYTICAL CORRECTIONS TO ENERGY AND PRESSURE
Info: LONG-RANGE LJ: AVERAGE A0 AND B0 COEFFICIENTS 71003.9 AND 74.6249
Info: LONG-RANGE LJ: AVERAGE A1 AND B1 COEFFICIENTS 71003.9 AND 74.6249
Info: STRUCTURE SUMMARY:
Info: 25976 ATOMS
Info: 17592 BONDS
Info: 9935 ANGLES
Info: 2317 DIHEDRALS
Info: 189 IMPROPERS
Info: 54 CROSSTERMS
Info: 0 EXCLUSIONS
Info: 25495 RIGID BONDS
Info: ALCH: 12 ATOMS TO DISAPPEAR IN FINAL STATE
Info: ALCH: 12 ATOMS TO APPEAR IN FINAL STATE
Info: ALCH: 6 DIHEDRALS LINKING INITIAL AND FINAL ATOMS DELETED
Info: 52433 DEGREES OF FREEDOM
Info: 8830 HYDROGEN GROUPS
Info: 4 ATOMS IN LARGEST HYDROGEN GROUP
Info: 8830 MIGRATION GROUPS
Info: 4 ATOMS IN LARGEST MIGRATION GROUP
Info: TOTAL MASS = 158013 amu
Info: TOTAL CHARGE = -4 e
Info: MASS DENSITY = 1.02308 g/cm^3
Info: ATOM DENSITY = 0.101281 atoms/A^3
Info: ADDED 29822 IMPLICIT EXCLUSIONS
Info: NONBONDED TABLE R-SQUARED SPACING: 0.0625
Info: NONBONDED TABLE SIZE: 769 POINTS
Info: REMOVING COM VELOCITY -0.0342854 -0.0291403 -0.0554959
Info: NONBONDED TABLE R-SQUARED SPACING: 0.0625
Info: NONBONDED TABLE SIZE: 769 POINTS
Info: READING EXTRA BONDS FILE 12/namdcph.sw.extrabonds
Info: LONG-RANGE LJ: APPLYING ANALYTICAL CORRECTIONS TO ENERGY AND PRESSURE
Info: LONG-RANGE LJ: AVERAGE A AND B COEFFICIENTS 71003.9 AND 74.6249
Info: STRUCTURE SUMMARY:
Info: 25964 ATOMS
Info: 17567 BONDS
Info: 9912 ANGLES
Info: 2278 DIHEDRALS
Info: 183 IMPROPERS
Info: 54 CROSSTERMS
Info: 0 EXCLUSIONS
Info: 25489 RIGID BONDS
Info: 52403 DEGREES OF FREEDOM
Info: 8824 HYDROGEN GROUPS
Info: 4 ATOMS IN LARGEST HYDROGEN GROUP
Info: 8824 MIGRATION GROUPS
Info: 4 ATOMS IN LARGEST MIGRATION GROUP
Info: TOTAL MASS = 157931 amu
Info: TOTAL CHARGE = -4 e
Info: MASS DENSITY = 1.02255 g/cm^3
Info: ATOM DENSITY = 0.101235 atoms/A^3
Info: ADDED 29751 IMPLICIT EXCLUSIONS
Info: NONBONDED TABLE R-SQUARED SPACING: 0.0625
Info: NONBONDED TABLE SIZE: 769 POINTS
Info: REMOVING COM VELOCITY -0.0327268 -0.0282083 -0.0550061
Info: NONBONDED TABLE R-SQUARED SPACING: 0.0625
Info: NONBONDED TABLE SIZE: 769 POINTS
Info: READING EXTRA BONDS FILE 12/namdcph.sw.extrabonds
Info: READ 12 EXTRA BONDS
Info: To read alchdata from file: coordinate pdb file (default)
Info: To read alchflag data from column: 5
Info: LONG-RANGE LJ: APPLYING ANALYTICAL CORRECTIONS TO ENERGY AND PRESSURE
Info: LONG-RANGE LJ: AVERAGE A0 AND B0 COEFFICIENTS 71003.9 AND 74.6249
Info: LONG-RANGE LJ: AVERAGE A1 AND B1 COEFFICIENTS 71003.9 AND 74.6249
Info: STRUCTURE SUMMARY:
Info: 25976 ATOMS
Info: 17592 BONDS
Info: 9935 ANGLES
Info: 2317 DIHEDRALS
Info: 189 IMPROPERS
Info: 54 CROSSTERMS
Info: 0 EXCLUSIONS
Info: 25495 RIGID BONDS
Info: ALCH: 12 ATOMS TO DISAPPEAR IN FINAL STATE
Info: ALCH: 12 ATOMS TO APPEAR IN FINAL STATE
Info: ALCH: 6 DIHEDRALS LINKING INITIAL AND FINAL ATOMS DELETED
Info: 52433 DEGREES OF FREEDOM
Info: 8830 HYDROGEN GROUPS
Info: 4 ATOMS IN LARGEST HYDROGEN GROUP
Info: 8830 MIGRATION GROUPS
Info: 4 ATOMS IN LARGEST MIGRATION GROUP
Info: TOTAL MASS = 158013 amu
Info: TOTAL CHARGE = -4 e
Info: MASS DENSITY = 1.02308 g/cm^3
Info: ATOM DENSITY = 0.101281 atoms/A^3
Info: ADDED 29822 IMPLICIT EXCLUSIONS
Info: NONBONDED TABLE R-SQUARED SPACING: 0.0625
Info: NONBONDED TABLE SIZE: 769 POINTS
Info: REMOVING COM VELOCITY -0.0101978 -0.0307547 0.0199551
Info: NONBONDED TABLE R-SQUARED SPACING: 0.0625
Info: NONBONDED TABLE SIZE: 769 POINTS
Info: READING EXTRA BONDS FILE 12/namdcph.sw.extrabonds
Info: LONG-RANGE LJ: APPLYING ANALYTICAL CORRECTIONS TO ENERGY AND PRESSURE
Info: LONG-RANGE LJ: AVERAGE A AND B COEFFICIENTS 71003.9 AND 74.6249
Info: STRUCTURE SUMMARY:
Info: 25964 ATOMS
Info: 17567 BONDS
Info: 9912 ANGLES
Info: 2278 DIHEDRALS
Info: 183 IMPROPERS
Info: 54 CROSSTERMS
Info: 0 EXCLUSIONS
Info: 25489 RIGID BONDS
Info: 52403 DEGREES OF FREEDOM
Info: 8824 HYDROGEN GROUPS
Info: 4 ATOMS IN LARGEST HYDROGEN GROUP
Info: 8824 MIGRATION GROUPS
Info: 4 ATOMS IN LARGEST MIGRATION GROUP
Info: TOTAL MASS = 157931 amu
Info: TOTAL CHARGE = -4 e
Info: MASS DENSITY = 1.02255 g/cm^3
Info: ATOM DENSITY = 0.101235 atoms/A^3
Info: ADDED 29751 IMPLICIT EXCLUSIONS
Info: NONBONDED TABLE R-SQUARED SPACING: 0.0625
Info: NONBONDED TABLE SIZE: 769 POINTS
Info: REMOVING COM VELOCITY -0.0123607 -0.0311336 0.0199978
Info: NONBONDED TABLE R-SQUARED SPACING: 0.0625
Info: NONBONDED TABLE SIZE: 769 POINTS
Info: READING EXTRA BONDS FILE 12/namdcph.sw.extrabonds
Info: READ 12 EXTRA BONDS
Info: To read alchdata from file: coordinate pdb file (default)
Info: To read alchflag data from column: 5
Info: LONG-RANGE LJ: APPLYING ANALYTICAL CORRECTIONS TO ENERGY AND PRESSURE
Info: LONG-RANGE LJ: AVERAGE A0 AND B0 COEFFICIENTS 71003.9 AND 74.6249
Info: LONG-RANGE LJ: AVERAGE A1 AND B1 COEFFICIENTS 71003.9 AND 74.6249
Info: STRUCTURE SUMMARY:
Info: 25976 ATOMS
Info: 17592 BONDS
Info: 9935 ANGLES
Info: 2317 DIHEDRALS
Info: 189 IMPROPERS
Info: 54 CROSSTERMS
Info: 0 EXCLUSIONS
Info: 25495 RIGID BONDS
Info: ALCH: 12 ATOMS TO DISAPPEAR IN FINAL STATE
Info: ALCH: 12 ATOMS TO APPEAR IN FINAL STATE
Info: ALCH: 6 DIHEDRALS LINKING INITIAL AND FINAL ATOMS DELETED
Info: 52433 DEGREES OF FREEDOM
Info: 8830 HYDROGEN GROUPS
Info: 4 ATOMS IN LARGEST HYDROGEN GROUP
Info: 8830 MIGRATION GROUPS
Info: 4 ATOMS IN LARGEST MIGRATION GROUP
Info: TOTAL MASS = 158013 amu
Info: TOTAL CHARGE = -4 e
Info: MASS DENSITY = 1.02308 g/cm^3
Info: ATOM DENSITY = 0.101281 atoms/A^3
Info: ADDED 29822 IMPLICIT EXCLUSIONS
Info: NONBONDED TABLE R-SQUARED SPACING: 0.0625
Info: NONBONDED TABLE SIZE: 769 POINTS
Info: REMOVING COM VELOCITY -0.0121498 0.0155994 0.00242921
Info: NONBONDED TABLE R-SQUARED SPACING: 0.0625
Info: NONBONDED TABLE SIZE: 769 POINTS
Info: READING EXTRA BONDS FILE 12/namdcph.sw.extrabonds
Info: LONG-RANGE LJ: APPLYING ANALYTICAL CORRECTIONS TO ENERGY AND PRESSURE
Info: LONG-RANGE LJ: AVERAGE A AND B COEFFICIENTS 71003.9 AND 74.6249
Info: STRUCTURE SUMMARY:
Info: 25964 ATOMS
Info: 17567 BONDS
Info: 9912 ANGLES
Info: 2278 DIHEDRALS
Info: 183 IMPROPERS
Info: 54 CROSSTERMS
Info: 0 EXCLUSIONS
Info: 25489 RIGID BONDS
Info: 52403 DEGREES OF FREEDOM
Info: 8824 HYDROGEN GROUPS
Info: 4 ATOMS IN LARGEST HYDROGEN GROUP
Info: 8824 MIGRATION GROUPS
Info: 4 ATOMS IN LARGEST MIGRATION GROUP
Info: TOTAL MASS = 157931 amu
Info: TOTAL CHARGE = -4 e
Info: MASS DENSITY = 1.02255 g/cm^3
Info: ATOM DENSITY = 0.101235 atoms/A^3
Info: ADDED 29751 IMPLICIT EXCLUSIONS
Info: NONBONDED TABLE R-SQUARED SPACING: 0.0625
Info: NONBONDED TABLE SIZE: 769 POINTS
Info: REMOVING COM VELOCITY -0.0385282 0.0636787 -0.0332435
Info: NONBONDED TABLE R-SQUARED SPACING: 0.0625
Info: NONBONDED TABLE SIZE: 769 POINTS
Info: READING EXTRA BONDS FILE 12/namdcph.sw.extrabonds
Info: READ 12 EXTRA BONDS
Info: To read alchdata from file: coordinate pdb file (default)
Info: To read alchflag data from column: 5
Info: LONG-RANGE LJ: APPLYING ANALYTICAL CORRECTIONS TO ENERGY AND PRESSURE
Info: LONG-RANGE LJ: AVERAGE A0 AND B0 COEFFICIENTS 71003.9 AND 74.6249
Info: LONG-RANGE LJ: AVERAGE A1 AND B1 COEFFICIENTS 71003.9 AND 74.6249
Info: STRUCTURE SUMMARY:
Info: 25976 ATOMS
Info: 17592 BONDS
Info: 9935 ANGLES
Info: 2317 DIHEDRALS
Info: 189 IMPROPERS
Info: 54 CROSSTERMS
Info: 0 EXCLUSIONS
Info: 25495 RIGID BONDS
Info: ALCH: 12 ATOMS TO DISAPPEAR IN FINAL STATE
Info: ALCH: 12 ATOMS TO APPEAR IN FINAL STATE
Info: ALCH: 6 DIHEDRALS LINKING INITIAL AND FINAL ATOMS DELETED
Info: 52433 DEGREES OF FREEDOM
Info: 8830 HYDROGEN GROUPS
Info: 4 ATOMS IN LARGEST HYDROGEN GROUP
Info: 8830 MIGRATION GROUPS
Info: 4 ATOMS IN LARGEST MIGRATION GROUP
Info: TOTAL MASS = 158013 amu
Info: TOTAL CHARGE = -4 e
Info: MASS DENSITY = 1.02308 g/cm^3
Info: ATOM DENSITY = 0.101281 atoms/A^3
Info: ADDED 29822 IMPLICIT EXCLUSIONS
Info: NONBONDED TABLE R-SQUARED SPACING: 0.0625
Info: NONBONDED TABLE SIZE: 769 POINTS
Info: REMOVING COM VELOCITY 0.043224 0.0422522 -0.0117646
Info: NONBONDED TABLE R-SQUARED SPACING: 0.0625
Info: NONBONDED TABLE SIZE: 769 POINTS
Info: READING EXTRA BONDS FILE 12/namdcph.sw.extrabonds
Info: LONG-RANGE LJ: APPLYING ANALYTICAL CORRECTIONS TO ENERGY AND PRESSURE
Info: LONG-RANGE LJ: AVERAGE A AND B COEFFICIENTS 71003.9 AND 74.6249
Info: STRUCTURE SUMMARY:
Info: 25964 ATOMS
Info: 17567 BONDS
Info: 9912 ANGLES
Info: 2278 DIHEDRALS
Info: 183 IMPROPERS
Info: 54 CROSSTERMS
Info: 0 EXCLUSIONS
Info: 25489 RIGID BONDS
Info: 52403 DEGREES OF FREEDOM
Info: 8824 HYDROGEN GROUPS
Info: 4 ATOMS IN LARGEST HYDROGEN GROUP
Info: 8824 MIGRATION GROUPS
Info: 4 ATOMS IN LARGEST MIGRATION GROUP
Info: TOTAL MASS = 157931 amu
Info: TOTAL CHARGE = -4 e
Info: MASS DENSITY = 1.02255 g/cm^3
Info: ATOM DENSITY = 0.101235 atoms/A^3
Info: ADDED 29751 IMPLICIT EXCLUSIONS
Info: NONBONDED TABLE R-SQUARED SPACING: 0.0625
Info: NONBONDED TABLE SIZE: 769 POINTS
Info: REMOVING COM VELOCITY -0.0206175 -0.00371938 0.0170243
Info: NONBONDED TABLE R-SQUARED SPACING: 0.0625
Info: NONBONDED TABLE SIZE: 769 POINTS
Info: READING EXTRA BONDS FILE 12/namdcph.sw.extrabonds
Info: READ 12 EXTRA BONDS
Info: To read alchdata from file: coordinate pdb file (default)
Info: To read alchflag data from column: 5
Info: LONG-RANGE LJ: APPLYING ANALYTICAL CORRECTIONS TO ENERGY AND PRESSURE
Info: LONG-RANGE LJ: AVERAGE A0 AND B0 COEFFICIENTS 71003.9 AND 74.6249
Info: LONG-RANGE LJ: AVERAGE A1 AND B1 COEFFICIENTS 71003.9 AND 74.6249
Info: STRUCTURE SUMMARY:
Info: 25976 ATOMS
Info: 17592 BONDS
Info: 9935 ANGLES
Info: 2317 DIHEDRALS
Info: 189 IMPROPERS
Info: 54 CROSSTERMS
Info: 0 EXCLUSIONS
Info: 25495 RIGID BONDS
Info: ALCH: 12 ATOMS TO DISAPPEAR IN FINAL STATE
Info: ALCH: 12 ATOMS TO APPEAR IN FINAL STATE
Info: ALCH: 6 DIHEDRALS LINKING INITIAL AND FINAL ATOMS DELETED
Info: 52433 DEGREES OF FREEDOM
Info: 8830 HYDROGEN GROUPS
Info: 4 ATOMS IN LARGEST HYDROGEN GROUP
Info: 8830 MIGRATION GROUPS
Info: 4 ATOMS IN LARGEST MIGRATION GROUP
Info: TOTAL MASS = 158013 amu
Info: TOTAL CHARGE = -4 e
Info: MASS DENSITY = 1.02308 g/cm^3
Info: ATOM DENSITY = 0.101281 atoms/A^3
Info: ADDED 29822 IMPLICIT EXCLUSIONS
Info: NONBONDED TABLE R-SQUARED SPACING: 0.0625
Info: NONBONDED TABLE SIZE: 769 POINTS
Info: REMOVING COM VELOCITY -0.0102105 0.00123756 -0.0642958
Info: NONBONDED TABLE R-SQUARED SPACING: 0.0625
Info: NONBONDED TABLE SIZE: 769 POINTS
Info: READING EXTRA BONDS FILE 12/namdcph.sw.extrabonds
Info: LONG-RANGE LJ: APPLYING ANALYTICAL CORRECTIONS TO ENERGY AND PRESSURE
Info: LONG-RANGE LJ: AVERAGE A AND B COEFFICIENTS 71003.9 AND 74.6249
Info: STRUCTURE SUMMARY:
Info: 25964 ATOMS
Info: 17567 BONDS
Info: 9912 ANGLES
Info: 2278 DIHEDRALS
Info: 183 IMPROPERS
Info: 54 CROSSTERMS
Info: 0 EXCLUSIONS
Info: 25489 RIGID BONDS
Info: 52403 DEGREES OF FREEDOM
Info: 8824 HYDROGEN GROUPS
Info: 4 ATOMS IN LARGEST HYDROGEN GROUP
Info: 8824 MIGRATION GROUPS
Info: 4 ATOMS IN LARGEST MIGRATION GROUP
Info: TOTAL MASS = 157931 amu
Info: TOTAL CHARGE = -4 e
Info: MASS DENSITY = 1.02255 g/cm^3
Info: ATOM DENSITY = 0.101235 atoms/A^3
Info: ADDED 29751 IMPLICIT EXCLUSIONS
Info: NONBONDED TABLE R-SQUARED SPACING: 0.0625
Info: NONBONDED TABLE SIZE: 769 POINTS
Info: REMOVING COM VELOCITY -0.00992646 0.00146789 -0.0660002
Info: NONBONDED TABLE R-SQUARED SPACING: 0.0625
Info: NONBONDED TABLE SIZE: 769 POINTS
Info: READING EXTRA BONDS FILE 12/namdcph.sw.extrabonds
Info: READ 12 EXTRA BONDS
Info: To read alchdata from file: coordinate pdb file (default)
Info: To read alchflag data from column: 5
Info: LONG-RANGE LJ: APPLYING ANALYTICAL CORRECTIONS TO ENERGY AND PRESSURE
Info: LONG-RANGE LJ: AVERAGE A0 AND B0 COEFFICIENTS 71003.9 AND 74.6249
Info: LONG-RANGE LJ: AVERAGE A1 AND B1 COEFFICIENTS 71003.9 AND 74.6249
Info: STRUCTURE SUMMARY:
Info: 25976 ATOMS
Info: 17592 BONDS
Info: 9935 ANGLES
Info: 2317 DIHEDRALS
Info: 189 IMPROPERS
Info: 54 CROSSTERMS
Info: 0 EXCLUSIONS
Info: 25495 RIGID BONDS
Info: ALCH: 12 ATOMS TO DISAPPEAR IN FINAL STATE
Info: ALCH: 12 ATOMS TO APPEAR IN FINAL STATE
Info: ALCH: 6 DIHEDRALS LINKING INITIAL AND FINAL ATOMS DELETED
Info: 52433 DEGREES OF FREEDOM
Info: 8830 HYDROGEN GROUPS
Info: 4 ATOMS IN LARGEST HYDROGEN GROUP
Info: 8830 MIGRATION GROUPS
Info: 4 ATOMS IN LARGEST MIGRATION GROUP
Info: TOTAL MASS = 158013 amu
Info: TOTAL CHARGE = -4 e
Info: MASS DENSITY = 1.02308 g/cm^3
Info: ATOM DENSITY = 0.101281 atoms/A^3
Info: ADDED 29822 IMPLICIT EXCLUSIONS
Info: NONBONDED TABLE R-SQUARED SPACING: 0.0625
Info: NONBONDED TABLE SIZE: 769 POINTS
Info: REMOVING COM VELOCITY 0.0415635 0.0452182 0.0293426
Info: NONBONDED TABLE R-SQUARED SPACING: 0.0625
Info: NONBONDED TABLE SIZE: 769 POINTS
Info: READING EXTRA BONDS FILE 12/namdcph.sw.extrabonds
Info: LONG-RANGE LJ: APPLYING ANALYTICAL CORRECTIONS TO ENERGY AND PRESSURE
Info: LONG-RANGE LJ: AVERAGE A AND B COEFFICIENTS 71003.9 AND 74.6249
Info: STRUCTURE SUMMARY:
Info: 25964 ATOMS
Info: 17567 BONDS
Info: 9912 ANGLES
Info: 2278 DIHEDRALS
Info: 183 IMPROPERS
Info: 54 CROSSTERMS
Info: 0 EXCLUSIONS
Info: 25489 RIGID BONDS
Info: 52403 DEGREES OF FREEDOM
Info: 8824 HYDROGEN GROUPS
Info: 4 ATOMS IN LARGEST HYDROGEN GROUP
Info: 8824 MIGRATION GROUPS
Info: 4 ATOMS IN LARGEST MIGRATION GROUP
Info: TOTAL MASS = 157931 amu
Info: TOTAL CHARGE = -4 e
Info: MASS DENSITY = 1.02255 g/cm^3
Info: ATOM DENSITY = 0.101235 atoms/A^3
Info: ADDED 29751 IMPLICIT EXCLUSIONS
Info: NONBONDED TABLE R-SQUARED SPACING: 0.0625
Info: NONBONDED TABLE SIZE: 769 POINTS
Info: REMOVING COM VELOCITY 0.0420064 0.0441314 0.0297095
Info: NONBONDED TABLE R-SQUARED SPACING: 0.0625
Info: NONBONDED TABLE SIZE: 769 POINTS
Info: READING EXTRA BONDS FILE 12/namdcph.sw.extrabonds
Info: READ 12 EXTRA BONDS
Info: To read alchdata from file: coordinate pdb file (default)
Info: To read alchflag data from column: 5
Info: LONG-RANGE LJ: APPLYING ANALYTICAL CORRECTIONS TO ENERGY AND PRESSURE
Info: LONG-RANGE LJ: AVERAGE A0 AND B0 COEFFICIENTS 71003.9 AND 74.6249
Info: LONG-RANGE LJ: AVERAGE A1 AND B1 COEFFICIENTS 71003.9 AND 74.6249
Info: STRUCTURE SUMMARY:
Info: 25976 ATOMS
Info: 17592 BONDS
Info: 9935 ANGLES
Info: 2317 DIHEDRALS
Info: 189 IMPROPERS
Info: 54 CROSSTERMS
Info: 0 EXCLUSIONS
Info: 25495 RIGID BONDS
Info: ALCH: 12 ATOMS TO DISAPPEAR IN FINAL STATE
Info: ALCH: 12 ATOMS TO APPEAR IN FINAL STATE
Info: ALCH: 6 DIHEDRALS LINKING INITIAL AND FINAL ATOMS DELETED
Info: 52433 DEGREES OF FREEDOM
Info: 8830 HYDROGEN GROUPS
Info: 4 ATOMS IN LARGEST HYDROGEN GROUP
Info: 8830 MIGRATION GROUPS
Info: 4 ATOMS IN LARGEST MIGRATION GROUP
Info: TOTAL MASS = 158013 amu
Info: TOTAL CHARGE = -4 e
Info: MASS DENSITY = 1.02308 g/cm^3
Info: ATOM DENSITY = 0.101281 atoms/A^3
Info: ADDED 29822 IMPLICIT EXCLUSIONS
Info: NONBONDED TABLE R-SQUARED SPACING: 0.0625
Info: NONBONDED TABLE SIZE: 769 POINTS
Info: REMOVING COM VELOCITY 0.0101974 0.0642099 -0.0334691
Info: NONBONDED TABLE R-SQUARED SPACING: 0.0625
Info: NONBONDED TABLE SIZE: 769 POINTS
Info: READING EXTRA BONDS FILE 12/namdcph.sw.extrabonds
Info: LONG-RANGE LJ: APPLYING ANALYTICAL CORRECTIONS TO ENERGY AND PRESSURE
Info: LONG-RANGE LJ: AVERAGE A AND B COEFFICIENTS 71003.9 AND 74.6249
Info: STRUCTURE SUMMARY:
Info: 25964 ATOMS
Info: 17567 BONDS
Info: 9912 ANGLES
Info: 2278 DIHEDRALS
Info: 183 IMPROPERS
Info: 54 CROSSTERMS
Info: 0 EXCLUSIONS
Info: 25489 RIGID BONDS
Info: 52403 DEGREES OF FREEDOM
Info: 8824 HYDROGEN GROUPS
Info: 4 ATOMS IN LARGEST HYDROGEN GROUP
Info: 8824 MIGRATION GROUPS
Info: 4 ATOMS IN LARGEST MIGRATION GROUP
Info: TOTAL MASS = 157931 amu
Info: TOTAL CHARGE = -4 e
Info: MASS DENSITY = 1.02255 g/cm^3
Info: ATOM DENSITY = 0.101235 atoms/A^3
Info: ADDED 29751 IMPLICIT EXCLUSIONS
Info: NONBONDED TABLE R-SQUARED SPACING: 0.0625
Info: NONBONDED TABLE SIZE: 769 POINTS
Info: REMOVING COM VELOCITY 0.0103071 0.064453 -0.032597
