Info: SIMULATION PARAMETERS:
Info: TIMESTEP               2
Info: NUMBER OF STEPS        0
Info: STEPS PER CYCLE        20
Info: PERIODIC CELL BASIS 1  44.2525 0 0
Info: PERIODIC CELL BASIS 2  0 55.5696 0
Info: PERIODIC CELL BASIS 3  0 0 104.296
Info: PERIODIC CELL CENTER   0.203575 0.535242 2.84572
Info: WRAPPING WATERS AROUND PERIODIC BOUNDARIES ON OUTPUT.
Info: WRAPPING ALL CLUSTERS AROUND PERIODIC BOUNDARIES ON OUTPUT.
Info: FIRST LDB TIMESTEP     100
Info: LAST LDB TIMESTEP     -1
Info: HOM BACKGROUND SCALING 1
Info: PME BACKGROUND SCALING 1
Info: MIN ATOMS PER PATCH    40
Info: INITIAL TEMPERATURE    298
Info: CENTER OF MASS MOVING INITIALLY? NO
Info: DIELECTRIC             1
Info: EXCLUDE                SCALED ONE-FOUR
Info: 1-4 ELECTROSTATICS SCALED BY 1
Info: MODIFIED 1-4 VDW PARAMETERS WILL BE USED
Info: DCD FILENAME           2/Pre2_0.dcd
Info: DCD FREQUENCY          1000
Info: DCD FIRST STEP         1000
Info: DCD FILE WILL CONTAIN UNIT CELL DATA
Info: NO EXTENDED SYSTEM TRAJECTORY OUTPUT
Info: NO VELOCITY DCD OUTPUT
Info: NO FORCE DCD OUTPUT
Info: OUTPUT FILENAME        2/Pre2_0
Info: BINARY OUTPUT FILES WILL BE USED
Info: NO RESTART FILE
Info: SWITCHING ACTIVE
Info: VDW FORCE SWITCHING ACTIVE
Info: SWITCHING ON           10
Info: SWITCHING OFF          12
Info: PAIRLIST DISTANCE      14
Info: PAIRLIST SHRINK RATE   0.01
Info: PAIRLIST GROW RATE     0.01
Info: PAIRLIST TRIGGER       0.3
Info: PAIRLISTS PER CYCLE    2
Info: PAIRLISTS ENABLED
Info: MARGIN                 2
Info: HYDROGEN GROUP CUTOFF  2.5
Info: PATCH DIMENSION        18.5
Info: ENERGY OUTPUT STEPS    1000
Info: CROSSTERM ENERGY INCLUDED IN DIHEDRAL
Info: TIMING OUTPUT STEPS    10000
Info: THERMODYNAMIC INTEGRATION (TI) ON
Info: TI LAMBDA VALUE     0
Info: TI INTRA-ALCHEMICAL NON-BONDED INTERACTIONS WILL BE DECOUPLED
Info: TI INTRA-ALCHEMICAL BONDED INTERACTIONS WILL BE DECOUPLED
Info: TI VDW SHIFTING COEFFICIENT 0
Info: TI ELEC. ACTIVE FOR ANNIHILATED PARTICLES BETWEEN LAMBDA = 0 AND LAMBDA = 1
Info: TI ELEC. ACTIVE FOR EXNIHILATED PARTICLES BETWEEN LAMBDA = 0 AND LAMBDA = 1
Info: TI VDW ACTIVE FOR ANNIHILATED PARTICLES BETWEEN LAMBDA = 0 AND LAMBDA = 1
Info: TI VDW ACTIVE FOR EXNIHILATED PARTICLES BETWEEN LAMBDA = 0 AND LAMBDA = 1
Info: TI BOND ACTIVE FOR ANNIHILATED PARTICLES BETWEEN LAMBDA = 0 AND LAMBDA = 1
Info: TI BOND ACTIVE FOR EXNIHILATED PARTICLES BETWEEN LAMBDA = 0 AND LAMBDA = 1
Info: LANGEVIN DYNAMICS ACTIVE
Info: LANGEVIN TEMPERATURE   298
Info: LANGEVIN USING BBK INTEGRATOR
Info: LANGEVIN DAMPING COEFFICIENT IS 1 INVERSE PS
Info: LANGEVIN DYNAMICS NOT APPLIED TO HYDROGENS
Info: PARTICLE MESH EWALD (PME) ACTIVE
Info: PME TOLERANCE               1e-06
Info: PME EWALD COEFFICIENT       0.257952
Info: PME INTERPOLATION ORDER     4
Info: PME GRID DIMENSIONS         48 56 108
Info: PME MAXIMUM GRID SPACING    1
Info: FULL ELECTROSTATIC EVALUATION FREQUENCY      2
Info: USING VERLET I (r-RESPA) MTS SCHEME.
Info: C1 SPLITTING OF LONG RANGE ELECTROSTATICS
Info: PLACING ATOMS IN PATCHES BY HYDROGEN GROUPS
Info: RIGID BONDS TO HYDROGEN : ALL
Info:         ERROR TOLERANCE : 1e-08
Info:          MAX ITERATIONS : 100
Info: RIGID WATER USING SETTLE ALGORITHM
Info: RANDOM NUMBER SEED     1689348671
Info: USE HYDROGEN BONDS?    NO
Info: COORDINATE PDB         ../topology/preD936H.pdb
Info: STRUCTURE FILE         ../topology/preD936H.psf
Info: PARAMETER file: CHARMM format!
Info: PARAMETERS             ../../toppar/par_all36_carb.prm
Info: PARAMETERS             ../../toppar/par_all36_cgenff.prm
Info: PARAMETERS             ../../toppar/par_all36_lipid.prm
Info: PARAMETERS             ../../toppar/par_all36_na.prm
Info: PARAMETERS             ../../toppar/par_all36_prot.prm
Info: PARAMETERS             ../../toppar/par_all36_solvent.prm
Info: PARAMETERS             ../../toppar/par_cph36_prot.prm
Info: PARAMETERS             ../../toppar/toppar_all36_carb_glycopeptide.str
Info: PARAMETERS             ../../toppar/toppar_water_ions_namd.str
Info: USING ARITHMETIC MEAN TO COMBINE L-J SIGMA PARAMETERS
Info: SKIPPING rtf SECTION IN STREAM FILE
Info: SKIPPING rtf SECTION IN STREAM FILE
Info: SUMMARY OF PARAMETERS:
Info: 925 BONDS
Info: 2696 ANGLES
Info: 6608 DIHEDRAL
Info: 195 IMPROPER
Info: 6 CROSSTERM
Info: 366 VDW
Info: 6 VDW_PAIRS
Info: 0 NBTHOLE_PAIRS
Info: READING EXTRA BONDS FILE 2/namdcph.sw.extrabonds
Info: To read alchdata from file: coordinate pdb file (default)
Info: To read alchflag data from column: 5
Info: LONG-RANGE LJ: APPLYING ANALYTICAL CORRECTIONS TO ENERGY AND PRESSURE
Info: LONG-RANGE LJ: AVERAGE A0 AND B0 COEFFICIENTS 70982 AND 74.603
Info: LONG-RANGE LJ: AVERAGE A1 AND B1 COEFFICIENTS 70982 AND 74.603
Info: STRUCTURE SUMMARY:
Info: 25959 ATOMS
Info: 17562 BONDS
Info: 9911 ANGLES
Info: 2266 DIHEDRALS
Info: 179 IMPROPERS
Info: 54 CROSSTERMS
Info: 0 EXCLUSIONS
Info: 25484 RIGID BONDS
Info: ALCH: 0 ATOMS TO DISAPPEAR IN FINAL STATE
Info: ALCH: 0 ATOMS TO APPEAR IN FINAL STATE
Info: 52393 DEGREES OF FREEDOM
Info: 8824 HYDROGEN GROUPS
Info: 4 ATOMS IN LARGEST HYDROGEN GROUP
Info: 8824 MIGRATION GROUPS
Info: 4 ATOMS IN LARGEST MIGRATION GROUP
Info: TOTAL MASS = 157926 amu
Info: TOTAL CHARGE = 4.24683e-07 e
Info: MASS DENSITY = 1.02252 g/cm^3
Info: ATOM DENSITY = 0.101215 atoms/A^3
Info: ADDED 29728 IMPLICIT EXCLUSIONS
Info: NONBONDED TABLE R-SQUARED SPACING: 0.0625
Info: NONBONDED TABLE SIZE: 769 POINTS
Info: REMOVING COM VELOCITY 0.0199652 -0.0530169 -0.00555616
TCL: Setting parameter alchLambdaFreq to 1
Info: NONBONDED TABLE R-SQUARED SPACING: 0.0625
Info: NONBONDED TABLE SIZE: 769 POINTS
TCL: Setting parameter alch to off
Info: NONBONDED TABLE R-SQUARED SPACING: 0.0625
Info: NONBONDED TABLE SIZE: 769 POINTS
TCL: namdcph) initializing constant pH PSF...
TCL: aliasing PP1:936:HSD to HIS
TCL: WARNING! Building new atom PP1:918:HE1 with unknown mass.
TCL:          This may cause issues, for example, with mass repartitioning.
TCL: WARNING! Building new atom PP1:918:HE2 with unknown mass.
TCL:          This may cause issues, for example, with mass repartitioning.
TCL: WARNING! Building new atom PP1:936:HE2 with unknown mass.
TCL:          This may cause issues, for example, with mass repartitioning.
TCL: WARNING! Building new atom PP1:950:HD1 with unknown mass.
TCL:          This may cause issues, for example, with mass repartitioning.
TCL: WARNING! Building new atom PP1:950:HD2 with unknown mass.
TCL:          This may cause issues, for example, with mass repartitioning.
TCL: cphpsfgen) creating new alchemical side chain for PP1:918:GLU
TCL: cphpsfgen) merging alchemical sidechains for PP1:918:GLU
TCL: cphpsfgen) creating new alchemical side chain for PP1:921:LYS
TCL: cphpsfgen) merging alchemical sidechains for PP1:921:LYS
TCL: cphpsfgen) creating new alchemical side chain for PP1:933:LYS
TCL: cphpsfgen) merging alchemical sidechains for PP1:933:LYS
TCL: cphpsfgen) creating new alchemical side chain for PP1:936:HIS
TCL: cphpsfgen) merging alchemical sidechains for PP1:936:HIS
TCL: cphpsfgen) creating new alchemical side chain for PP1:947:LYS
TCL: cphpsfgen) merging alchemical sidechains for PP1:947:LYS
TCL: cphpsfgen) creating new alchemical side chain for PP1:950:ASP
TCL: cphpsfgen) merging alchemical sidechains for PP1:950:ASP
TCL: cphpsfgen) creating new alchemical side chain for PP1:964:LYS
TCL: cphpsfgen) merging alchemical sidechains for PP1:964:LYS
TCL: namdcph) ***************************************
TCL: namdcph) CONSTANT pH MD ACTIVE
TCL: namdcph) SYSTEM pH 2
TCL: namdcph) CONSTANT pH CONFIGURATION FILE(S)
TCL: namdcph) ../../toppar/conf_cph36_prot.json
TCL: namdcph) NONEQUILIBRIUM SWITCH PARAMETERS:
TCL: namdcph) ALCHEMICAL FORCE CONSTANT 100.0 kcal/mol-A^2
TCL: namdcph) neMD/MC CRITERION TEMPERATURE 298.0
TCL: namdcph) TEMPORARY FILE INFORMATION:
TCL: namdcph) cpH TOPOLOGY FILE BASENAME 2/namdcph.md
TCL: namdcph) neMD/MC TRAJECTORY BASENAME 2/namdcph.sw
TCL: namdcph) ***************************************
TCL: namdcph) ***************************************
TCL: namdcph) TITRATABLE RESIDUE DEFINITIONS:
TCL: namdcph) HIS ASP GLU CYS LYS
TCL: namdcph) TITRATABLE SYSTEM SUMMARY:
TCL: namdcph) 7 RESIDUE(S)
TCL: namdcph) 18 PROTONATION SITE(S)
TCL: namdcph) ***************************************
TCL: namdcph) segid:resid:resname : state : pKai
TCL: namdcph) PP1:918:GLU         :     2 : 5.90
TCL: namdcph) PP1:921:LYS         :     P : 9.77
TCL: namdcph) PP1:933:LYS         :     P : 9.53
TCL: namdcph) PP1:936:HIS         :     P : 6.5 7.0
TCL: namdcph) PP1:947:LYS         :     P : 9.82
TCL: namdcph) PP1:950:ASP         :     2 : 5.50
TCL: namdcph) PP1:964:LYS         :     P : 9.68
TCL: namdcph) ***************************************
TCL: namdcph) *************************************************
TCL: namdcph) CONSTANT pH neMD/MC MOVES:
TCL: namdcph) MAX. ATTEMPTS PER CYCLE: 1
TCL: namdcph) ONE RESIDUE MOVES
TCL: namdcph) move label     : numsteps   weight
TCL: namdcph) PP1:918:GLU    :    75000     1.00
TCL: namdcph) PP1:921:LYS    :    75000     1.00
TCL: namdcph) PP1:933:LYS    :    75000     1.00
TCL: namdcph) PP1:936:HIS    :    75000     1.00
TCL: namdcph) PP1:947:LYS    :    75000     1.00
TCL: namdcph) PP1:950:ASP    :    75000     1.00
TCL: namdcph) PP1:964:LYS    :    75000     1.00
TCL: namdcph) *************************************************
TCL: namdcph) clearing extraBondsFile 2/namdcph.sw.extrabonds
TCL: Reloading molecular structure from file 2/namdcph.md.psf and pdb file 2/namdcph.md.pdb
Info: READING EXTRA BONDS FILE 2/namdcph.sw.extrabonds
Info: LONG-RANGE LJ: APPLYING ANALYTICAL CORRECTIONS TO ENERGY AND PRESSURE
Info: LONG-RANGE LJ: AVERAGE A AND B COEFFICIENTS 70974 AND 74.5925
Info: STRUCTURE SUMMARY:
Info: 25964 ATOMS
Info: 17567 BONDS
Info: 9917 ANGLES
Info: 2278 DIHEDRALS
Info: 177 IMPROPERS
Info: 54 CROSSTERMS
Info: 0 EXCLUSIONS
Info: 25489 RIGID BONDS
Info: 52403 DEGREES OF FREEDOM
Info: 8824 HYDROGEN GROUPS
Info: 4 ATOMS IN LARGEST HYDROGEN GROUP
Info: 8824 MIGRATION GROUPS
Info: 4 ATOMS IN LARGEST MIGRATION GROUP
Info: TOTAL MASS = 157931 amu
Info: TOTAL CHARGE = 3 e
Info: MASS DENSITY = 1.02255 g/cm^3
Info: ATOM DENSITY = 0.101235 atoms/A^3
Info: ADDED 29751 IMPLICIT EXCLUSIONS
Info: NONBONDED TABLE R-SQUARED SPACING: 0.0625
Info: NONBONDED TABLE SIZE: 769 POINTS
TCL: Reinitializing atom data from files with basename 2/namdcph.md
Info: REMOVING COM VELOCITY -1.80831e-05 0.00092597 -0.00195664
TCL: Minimizing for 300 steps
ETITLE: TS BOND ANGLE DIHED IMPRP ELECT VDW BOUNDARY MISC KINETIC TOTAL TEMP POTENTIAL TOTAL3 TEMPAVG PRESSURE GPRESSURE VOLUME PRESSAVG GPRESSAVG
ENERGY: 0 62.9586 106.0731 443.3923 0.5578 -82661.1152 99999999999.9999 0.0000 0.0000 0.0000 99999999999.9999 0.0000 99999999999.9999 99999999999.9999 0.0000 99999999999.9999 99999999999.9999 256473.6171 99999999999.9999 99999999999.9999
ENERGY: 60 796.4510 264.5760 431.8653 7.3974 -94021.3665 12078.7359 0.0000 0.0000 0.0000 -80442.3410 0.0000 -80442.3410 -80442.3410 0.0000 24629.3583 5813.0491 256473.6171 24629.3583 5813.0491
ENERGY: 120 213.2371 244.6633 433.8801 7.6399 -98466.9542 10015.6635 0.0000 0.0000 0.0000 -87551.8703 0.0000 -87551.8703 -87551.8703 0.0000 21675.4605 1903.9390 256473.6171 21675.4605 1903.9390
ENERGY: 180 106.7922 186.6072 431.8043 11.2604 -101309.7229 9162.7426 0.0000 0.0000 0.0000 -91410.5162 0.0000 -91410.5162 -91410.5162 0.0000 20082.1870 -258.8107 256473.6171 20082.1870 -258.8107
ENERGY: 240 135.6154 306.9803 430.5071 12.2093 -104137.7377 8728.8901 0.0000 0.0000 0.0000 -94523.5353 0.0000 -94523.5353 -94523.5353 0.0000 19337.8350 19254.7235 256473.6171 19337.8350 19254.7235
ENERGY: 300 81.8602 214.6925 430.2363 9.5939 -106073.5194 8836.9160 0.0000 0.0000 0.0000 -96500.2205 0.0000 -96500.2205 -96500.2205 0.0000 19372.7707 19293.5112 256473.6171 19372.7707 19293.5112
TCL: Setting parameter firstTimeStep to 0
TCL: Running for 500 steps
ETITLE: TS BOND ANGLE DIHED IMPRP ELECT VDW BOUNDARY MISC KINETIC TOTAL TEMP POTENTIAL TOTAL3 TEMPAVG PRESSURE GPRESSURE VOLUME PRESSAVG GPRESSAVG
ENERGY: 0 81.8602 214.6925 430.2363 9.5939 -106073.5194 8836.9160 0.0000 0.0000 15514.8991 -80985.3214 297.9773 -96500.2205 -81003.0716 297.9773 -2848.9385 -2777.8312 256473.6171 -2848.9385 -2777.8312
TCL: namdcph) Proposal rejected.
TCL: Running for 500 steps without repeating first step
ETITLE: TS BOND ANGLE DIHED IMPRP ELECT VDW BOUNDARY MISC KINETIC TOTAL TEMP POTENTIAL TOTAL3 TEMPAVG PRESSURE GPRESSURE VOLUME PRESSAVG GPRESSAVG
ENERGY: 1000 150.4790 460.3093 470.6131 26.7262 -101304.0708 9328.9295 0.0000 0.0000 13633.4561 -77233.5577 261.8425 -90867.0138 -77204.6513 244.8258 -474.8788 -435.3266 256473.6171 -469.5198 -469.6539
TCL: namdcph) Proposal rejected.
TCL: Running for 500 steps without repeating first step
TCL: namdcph) Proposal rejected.
TCL: Running for 500 steps without repeating first step
ETITLE: TS BOND ANGLE DIHED IMPRP ELECT VDW BOUNDARY MISC KINETIC TOTAL TEMP POTENTIAL TOTAL3 TEMPAVG PRESSURE GPRESSURE VOLUME PRESSAVG GPRESSAVG
ENERGY: 2000 161.3917 469.9408 484.7736 32.0840 -99518.9803 8746.8428 0.0000 0.0000 14528.1189 -75095.8285 279.0253 -89623.9474 -75057.8975 271.7438 -536.8261 -507.0271 256473.6171 -516.1619 -516.2132
TCL: namdcph) Proposal rejected.
TCL: Running for 500 steps without repeating first step
TCL: namdcph) Proposal rejected.
TCL: Running for 500 steps without repeating first step
ETITLE: TS BOND ANGLE DIHED IMPRP ELECT VDW BOUNDARY MISC KINETIC TOTAL TEMP POTENTIAL TOTAL3 TEMPAVG PRESSURE GPRESSURE VOLUME PRESSAVG GPRESSAVG
ENERGY: 3000 153.5452 471.1537 479.7796 34.0266 -98260.5473 8438.8740 0.0000 0.0000 14901.7754 -73781.3929 286.2017 -88683.1683 -73742.5969 283.1908 -568.8013 -531.6228 256473.6171 -339.3173 -339.3319
TCL: namdcph) Proposal rejected.
TCL: Running for 500 steps without repeating first step
TCL: namdcph) Proposal rejected.
TCL: Running for 500 steps without repeating first step
ETITLE: TS BOND ANGLE DIHED IMPRP ELECT VDW BOUNDARY MISC KINETIC TOTAL TEMP POTENTIAL TOTAL3 TEMPAVG PRESSURE GPRESSURE VOLUME PRESSAVG GPRESSAVG
ENERGY: 4000 168.1026 510.3459 475.0253 30.3156 -97944.4953 8521.9079 0.0000 0.0000 15215.2555 -73023.5425 292.2224 -88238.7980 -72992.5856 289.1989 -270.5389 -238.0386 256473.6171 -338.1940 -338.1683
TCL: namdcph) Proposal rejected.
TCL: Running for 500 steps without repeating first step
TCL: namdcph) Proposal rejected.
TCL: Running for 500 steps without repeating first step
ETITLE: TS BOND ANGLE DIHED IMPRP ELECT VDW BOUNDARY MISC KINETIC TOTAL TEMP POTENTIAL TOTAL3 TEMPAVG PRESSURE GPRESSURE VOLUME PRESSAVG GPRESSAVG
ENERGY: 5000 162.5062 471.3276 494.8879 30.0796 -97758.8871 8682.7423 0.0000 0.0000 15301.6846 -72615.6589 293.8823 -87917.3436 -72570.9256 293.9923 -128.0211 -90.6027 256473.6171 -264.7128 -264.8246
TCL: namdcph) Proposal rejected.
TCL: Running for 500 steps without repeating first step
TCL: namdcph) Proposal rejected.
TCL: Running for 500 steps without repeating first step
ETITLE: TS BOND ANGLE DIHED IMPRP ELECT VDW BOUNDARY MISC KINETIC TOTAL TEMP POTENTIAL TOTAL3 TEMPAVG PRESSURE GPRESSURE VOLUME PRESSAVG GPRESSAVG
ENERGY: 6000 157.8408 513.6953 499.8223 40.2198 -97278.8719 8354.5033 0.0000 0.0000 15324.1862 -72388.6042 294.3145 -87712.7904 -72355.5372 294.8235 -291.2061 -266.7587 256473.6171 -217.2117 -217.1989
TCL: namdcph) Proposal rejected.
TCL: Running for 500 steps without repeating first step
TCL: namdcph) Proposal rejected.
TCL: Running for 500 steps without repeating first step
ETITLE: TS BOND ANGLE DIHED IMPRP ELECT VDW BOUNDARY MISC KINETIC TOTAL TEMP POTENTIAL TOTAL3 TEMPAVG PRESSURE GPRESSURE VOLUME PRESSAVG GPRESSAVG
ENERGY: 7000 143.5237 505.1077 491.7679 35.5728 -97300.9758 8266.2206 0.0000 0.0000 15505.5140 -72353.2693 297.7971 -87858.7832 -72309.6374 294.9793 -338.0149 -303.7829 256473.6171 -186.8107 -186.8399
TCL: namdcph) Proposal rejected.
TCL: Running for 500 steps without repeating first step
TCL: namdcph) Proposal rejected.
TCL: Running for 500 steps without repeating first step
ETITLE: TS BOND ANGLE DIHED IMPRP ELECT VDW BOUNDARY MISC KINETIC TOTAL TEMP POTENTIAL TOTAL3 TEMPAVG PRESSURE GPRESSURE VOLUME PRESSAVG GPRESSAVG
ENERGY: 8000 167.9789 486.4974 479.0703 34.9171 -97085.1546 8307.8661 0.0000 0.0000 15365.9397 -72242.8852 295.1164 -87608.8249 -72202.3123 296.3256 -288.1029 -250.8017 256473.6171 -237.1092 -237.1959
TCL: namdcph) Proposal rejected.
TCL: Running for 500 steps without repeating first step
TCL: namdcph) Proposal rejected.
TCL: Running for 500 steps without repeating first step
ETITLE: TS BOND ANGLE DIHED IMPRP ELECT VDW BOUNDARY MISC KINETIC TOTAL TEMP POTENTIAL TOTAL3 TEMPAVG PRESSURE GPRESSURE VOLUME PRESSAVG GPRESSAVG
ENERGY: 9000 168.3553 509.9450 474.1231 25.7903 -97425.0154 8599.6320 0.0000 0.0000 15446.5186 -72200.6511 296.6640 -87647.1698 -72161.2473 297.3420 -36.8062 -5.9462 256473.6171 -129.8410 -129.9826
TCL: namdcph) Proposal rejected.
TCL: Running for 500 steps without repeating first step
TCL: namdcph) Proposal rejected.
TCL: Running for 500 steps without repeating first step
ETITLE: TS BOND ANGLE DIHED IMPRP ELECT VDW BOUNDARY MISC KINETIC TOTAL TEMP POTENTIAL TOTAL3 TEMPAVG PRESSURE GPRESSURE VOLUME PRESSAVG GPRESSAVG
ENERGY: 10000 157.5143 488.9574 480.8323 33.8975 -97315.1735 8427.1373 0.0000 0.0000 15534.2260 -72192.6086 298.3485 -87726.8346 -72157.9401 296.7177 -203.5672 -165.8185 256473.6171 -182.2546 -182.1800
TCL: namdcph) Proposal rejected.
TCL: Running for 500 steps without repeating first step
TCL: namdcph) Proposal rejected.
TCL: Running for 500 steps without repeating first step
ETITLE: TS BOND ANGLE DIHED IMPRP ELECT VDW BOUNDARY MISC KINETIC TOTAL TEMP POTENTIAL TOTAL3 TEMPAVG PRESSURE GPRESSURE VOLUME PRESSAVG GPRESSAVG
ENERGY: 11000 159.5404 470.5920 473.0684 36.5251 -97134.1066 8272.1892 0.0000 0.0000 15541.7338 -72180.4576 298.4927 -87722.1914 -72146.0252 297.6737 -333.1428 -297.8106 256473.6171 -162.2199 -162.3699
TCL: namdcph) Proposal rejected.
TCL: Running for 500 steps without repeating first step
TCL: namdcph) Proposal rejected.
TCL: Running for 500 steps without repeating first step
ETITLE: TS BOND ANGLE DIHED IMPRP ELECT VDW BOUNDARY MISC KINETIC TOTAL TEMP POTENTIAL TOTAL3 TEMPAVG PRESSURE GPRESSURE VOLUME PRESSAVG GPRESSAVG
ENERGY: 12000 136.7390 475.7213 480.4781 38.9946 -97294.8112 8610.9980 0.0000 0.0000 15504.1845 -72047.6959 297.7715 -87551.8804 -72013.0170 298.3152 76.0696 110.7330 256473.6171 -143.7593 -143.7807
TCL: namdcph) Proposal rejected.
TCL: Running for 500 steps without repeating first step
TCL: namdcph) Proposal rejected.
TCL: Running for 500 steps without repeating first step
ETITLE: TS BOND ANGLE DIHED IMPRP ELECT VDW BOUNDARY MISC KINETIC TOTAL TEMP POTENTIAL TOTAL3 TEMPAVG PRESSURE GPRESSURE VOLUME PRESSAVG GPRESSAVG
ENERGY: 13000 151.0560 484.3197 481.4755 35.7848 -97163.3522 8312.6100 0.0000 0.0000 15516.2922 -72181.8140 298.0041 -87698.1062 -72138.0633 297.7088 -213.6469 -177.6067 256473.6171 -251.4186 -251.5498
TCL: namdcph) Proposal rejected.
TCL: Running for 500 steps without repeating first step
TCL: namdcph) Proposal rejected.
TCL: Running for 500 steps without repeating first step
ETITLE: TS BOND ANGLE DIHED IMPRP ELECT VDW BOUNDARY MISC KINETIC TOTAL TEMP POTENTIAL TOTAL3 TEMPAVG PRESSURE GPRESSURE VOLUME PRESSAVG GPRESSAVG
ENERGY: 14000 154.8935 468.8015 491.6746 36.5595 -97247.7146 8463.1250 0.0000 0.0000 15409.7382 -72222.9223 295.9576 -87632.6605 -72186.5433 296.6594 -53.5159 -13.8588 256473.6171 -213.5953 -213.5798
TCL: namdcph) Proposal rejected.
TCL: Running for 500 steps without repeating first step
TCL: namdcph) Proposal rejected.
TCL: Running for 500 steps without repeating first step
ETITLE: TS BOND ANGLE DIHED IMPRP ELECT VDW BOUNDARY MISC KINETIC TOTAL TEMP POTENTIAL TOTAL3 TEMPAVG PRESSURE GPRESSURE VOLUME PRESSAVG GPRESSAVG
ENERGY: 15000 158.7974 508.5115 468.6780 35.5605 -97166.1099 8279.2175 0.0000 0.0000 15548.7053 -72166.6397 298.6266 -87715.3450 -72129.2587 297.3802 -321.2017 -290.5309 256473.6171 -199.4260 -199.4611
TCL: namdcph) Proposal rejected.
TCL: Running for 500 steps without repeating first step
TCL: namdcph) Proposal rejected.
TCL: Running for 500 steps without repeating first step
ETITLE: TS BOND ANGLE DIHED IMPRP ELECT VDW BOUNDARY MISC KINETIC TOTAL TEMP POTENTIAL TOTAL3 TEMPAVG PRESSURE GPRESSURE VOLUME PRESSAVG GPRESSAVG
ENERGY: 16000 174.7097 517.6157 478.7451 38.5699 -97155.8727 8342.7597 0.0000 0.0000 15467.3763 -72136.0964 297.0646 -87603.4727 -72099.7500 297.8384 -307.8388 -272.0954 256473.6171 -175.4864 -175.5067
TCL: namdcph) Proposal rejected.
TCL: Running for 500 steps without repeating first step
TCL: namdcph) Proposal rejected.
TCL: Running for 500 steps without repeating first step
ETITLE: TS BOND ANGLE DIHED IMPRP ELECT VDW BOUNDARY MISC KINETIC TOTAL TEMP POTENTIAL TOTAL3 TEMPAVG PRESSURE GPRESSURE VOLUME PRESSAVG GPRESSAVG
ENERGY: 17000 164.7677 503.2427 472.9803 28.3238 -97502.0591 8792.0119 0.0000 0.0000 15324.5184 -72216.2143 294.3209 -87540.7327 -72181.4894 297.1869 191.3539 226.1736 256473.6171 -177.7573 -177.9190
TCL: namdcph) Proposal rejected.
TCL: Running for 500 steps without repeating first step
TCL: namdcph) Proposal rejected.
TCL: Running for 500 steps without repeating first step
ETITLE: TS BOND ANGLE DIHED IMPRP ELECT VDW BOUNDARY MISC KINETIC TOTAL TEMP POTENTIAL TOTAL3 TEMPAVG PRESSURE GPRESSURE VOLUME PRESSAVG GPRESSAVG
ENERGY: 18000 160.7641 479.6709 473.6779 32.3099 -97187.2045 8449.8354 0.0000 0.0000 15413.8358 -72177.1104 296.0363 -87590.9462 -72138.6149 298.0811 -187.0032 -150.7670 256473.6171 -152.3702 -152.4465
TCL: namdcph) Proposal rejected.
TCL: Running for 500 steps without repeating first step
TCL: namdcph) Proposal rejected.
TCL: Running for 500 steps without repeating first step
ETITLE: TS BOND ANGLE DIHED IMPRP ELECT VDW BOUNDARY MISC KINETIC TOTAL TEMP POTENTIAL TOTAL3 TEMPAVG PRESSURE GPRESSURE VOLUME PRESSAVG GPRESSAVG
ENERGY: 19000 164.0288 477.7221 467.4273 29.3151 -97319.7383 8388.2465 0.0000 0.0000 15658.1540 -72134.8443 300.7286 -87792.9983 -72093.6520 297.6177 -227.2098 -190.2195 256473.6171 -129.6207 -129.6903
TCL: namdcph) Proposal rejected.
TCL: Running for 500 steps without repeating first step
TCL: namdcph) Proposal rejected.
TCL: Running for 500 steps without repeating first step
ETITLE: TS BOND ANGLE DIHED IMPRP ELECT VDW BOUNDARY MISC KINETIC TOTAL TEMP POTENTIAL TOTAL3 TEMPAVG PRESSURE GPRESSURE VOLUME PRESSAVG GPRESSAVG
ENERGY: 20000 165.0753 490.4083 474.9757 31.5184 -97491.1573 8566.4376 0.0000 0.0000 15419.7502 -72342.9918 296.1499 -87762.7419 -72302.5768 297.8454 -90.6422 -58.7195 256473.6171 -69.4661 -69.5089
TCL: namdcph) Proposal rejected.
TCL: Running for 500 steps without repeating first step
TCL: namdcph) Proposal rejected.
TCL: Running for 500 steps without repeating first step
ETITLE: TS BOND ANGLE DIHED IMPRP ELECT VDW BOUNDARY MISC KINETIC TOTAL TEMP POTENTIAL TOTAL3 TEMPAVG PRESSURE GPRESSURE VOLUME PRESSAVG GPRESSAVG
ENERGY: 21000 162.4354 489.2872 479.2964 41.1424 -97197.0049 8413.2854 0.0000 0.0000 15595.7497 -72015.8083 299.5301 -87611.5580 -71976.9069 297.3226 -163.5385 -130.8649 256473.6171 -232.8309 -232.8741
TCL: namdcph) Proposal rejected.
TCL: Running for 500 steps without repeating first step
TCL: namdcph) Proposal rejected.
TCL: Running for 500 steps without repeating first step
ETITLE: TS BOND ANGLE DIHED IMPRP ELECT VDW BOUNDARY MISC KINETIC TOTAL TEMP POTENTIAL TOTAL3 TEMPAVG PRESSURE GPRESSURE VOLUME PRESSAVG GPRESSAVG
ENERGY: 22000 168.1145 478.3967 471.2988 31.9360 -97320.9016 8410.6265 0.0000 0.0000 15534.6528 -72225.8763 298.3567 -87760.5291 -72194.4904 297.7825 -243.8780 -210.4464 256473.6171 -228.4202 -228.2926
TCL: namdcph) Proposal rejected.
TCL: Running for 500 steps without repeating first step
TCL: namdcph) Proposal rejected.
TCL: Running for 500 steps without repeating first step
ETITLE: TS BOND ANGLE DIHED IMPRP ELECT VDW BOUNDARY MISC KINETIC TOTAL TEMP POTENTIAL TOTAL3 TEMPAVG PRESSURE GPRESSURE VOLUME PRESSAVG GPRESSAVG
ENERGY: 23000 166.8072 461.9035 469.9772 34.7554 -96992.5776 8374.0345 0.0000 0.0000 15495.7299 -71989.3699 297.6091 -87485.0999 -71952.1083 297.3261 -175.8750 -141.2813 256473.6171 -218.4413 -218.4093
TCL: namdcph) Proposal rejected.
TCL: Running for 500 steps without repeating first step
TCL: namdcph) Proposal rejected.
TCL: Running for 500 steps without repeating first step
ETITLE: TS BOND ANGLE DIHED IMPRP ELECT VDW BOUNDARY MISC KINETIC TOTAL TEMP POTENTIAL TOTAL3 TEMPAVG PRESSURE GPRESSURE VOLUME PRESSAVG GPRESSAVG
ENERGY: 24000 166.3770 483.3329 472.7776 31.3348 -97292.5267 8468.5366 0.0000 0.0000 15479.3207 -72190.8470 297.2940 -87670.1677 -72158.3640 297.7281 -92.1098 -57.1606 256473.6171 -138.7033 -138.5762
TCL: namdcph) Proposal rejected.
TCL: Running for 500 steps without repeating first step
TCL: namdcph) Proposal rejected.
TCL: Running for 500 steps without repeating first step
ETITLE: TS BOND ANGLE DIHED IMPRP ELECT VDW BOUNDARY MISC KINETIC TOTAL TEMP POTENTIAL TOTAL3 TEMPAVG PRESSURE GPRESSURE VOLUME PRESSAVG GPRESSAVG
ENERGY: 25000 148.2009 523.8916 466.9398 32.5859 -97450.5648 8436.7203 0.0000 0.0000 15590.4278 -72251.7986 299.4279 -87842.2264 -72211.2262 297.0549 -207.1338 -173.0087 256473.6171 -201.9628 -201.9313
TCL: namdcph) Proposal rejected.
TCL: Running for 500 steps without repeating first step
TCL: namdcph) Proposal rejected.
TCL: Running for 500 steps without repeating first step
ETITLE: TS BOND ANGLE DIHED IMPRP ELECT VDW BOUNDARY MISC KINETIC TOTAL TEMP POTENTIAL TOTAL3 TEMPAVG PRESSURE GPRESSURE VOLUME PRESSAVG GPRESSAVG
ENERGY: 26000 163.3205 486.0463 479.1836 35.3602 -97224.3316 8440.0469 0.0000 0.0000 15493.5561 -72126.8180 297.5674 -87620.3741 -72085.1148 297.7986 -212.8224 -176.4571 256473.6171 -169.8501 -169.8600
TCL: namdcph) Proposal rejected.
TCL: Running for 500 steps without repeating first step
TCL: namdcph) Proposal rejected.
TCL: Running for 500 steps without repeating first step
ETITLE: TS BOND ANGLE DIHED IMPRP ELECT VDW BOUNDARY MISC KINETIC TOTAL TEMP POTENTIAL TOTAL3 TEMPAVG PRESSURE GPRESSURE VOLUME PRESSAVG GPRESSAVG
ENERGY: 27000 164.7102 505.0666 481.6703 28.7690 -97187.3233 8301.8052 0.0000 0.0000 15525.3239 -72179.9781 298.1775 -87705.3020 -72141.8555 296.7719 -353.0850 -320.2032 256473.6171 -244.0477 -244.1234
TCL: namdcph) Proposal rejected.
TCL: Running for 500 steps without repeating first step
TCL: namdcph) Proposal rejected.
TCL: Running for 500 steps without repeating first step
ETITLE: TS BOND ANGLE DIHED IMPRP ELECT VDW BOUNDARY MISC KINETIC TOTAL TEMP POTENTIAL TOTAL3 TEMPAVG PRESSURE GPRESSURE VOLUME PRESSAVG GPRESSAVG
ENERGY: 28000 171.5922 476.7948 488.0130 28.5265 -97562.5152 8551.2768 0.0000 0.0000 15543.1462 -72303.1658 298.5198 -87846.3120 -72268.0101 296.9231 -137.6564 -105.1727 256473.6171 -152.9544 -152.8997
TCL: namdcph) Proposal rejected.
TCL: Running for 500 steps without repeating first step
TCL: namdcph) Proposal rejected.
TCL: Running for 500 steps without repeating first step
ETITLE: TS BOND ANGLE DIHED IMPRP ELECT VDW BOUNDARY MISC KINETIC TOTAL TEMP POTENTIAL TOTAL3 TEMPAVG PRESSURE GPRESSURE VOLUME PRESSAVG GPRESSAVG
ENERGY: 29000 163.6634 525.0085 492.8077 37.6183 -97102.3325 8373.4994 0.0000 0.0000 15459.0877 -72050.6476 296.9054 -87509.7352 -72013.7720 296.6581 -227.5646 -191.6300 256473.6171 -183.3573 -183.3698
TCL: namdcph) Proposal rejected.
TCL: Running for 500 steps without repeating first step
TCL: namdcph) Proposal rejected.
TCL: Running for 500 steps without repeating first step
ETITLE: TS BOND ANGLE DIHED IMPRP ELECT VDW BOUNDARY MISC KINETIC TOTAL TEMP POTENTIAL TOTAL3 TEMPAVG PRESSURE GPRESSURE VOLUME PRESSAVG GPRESSAVG
ENERGY: 30000 164.7439 499.6509 490.1367 33.7340 -97099.5373 8312.8549 0.0000 0.0000 15386.8279 -72211.5891 295.5176 -87598.4169 -72171.7658 297.3993 -252.5446 -217.7385 256473.6171 -115.7636 -115.7007
TCL: namdcph) Proposal rejected.
TCL: Running for 500 steps without repeating first step
TCL: namdcph) Proposal rejected.
TCL: Running for 500 steps without repeating first step
ETITLE: TS BOND ANGLE DIHED IMPRP ELECT VDW BOUNDARY MISC KINETIC TOTAL TEMP POTENTIAL TOTAL3 TEMPAVG PRESSURE GPRESSURE VOLUME PRESSAVG GPRESSAVG
ENERGY: 31000 147.1832 486.1204 469.7424 23.7508 -97638.2776 8579.1325 0.0000 0.0000 15428.7687 -72503.5796 296.3231 -87932.3483 -72463.8260 296.5028 -132.1176 -96.8676 256473.6171 -212.9630 -213.1340
TCL: namdcph) Proposal rejected.
TCL: Running for 500 steps without repeating first step
TCL: namdcph) Proposal rejected.
TCL: Running for 500 steps without repeating first step
ETITLE: TS BOND ANGLE DIHED IMPRP ELECT VDW BOUNDARY MISC KINETIC TOTAL TEMP POTENTIAL TOTAL3 TEMPAVG PRESSURE GPRESSURE VOLUME PRESSAVG GPRESSAVG
ENERGY: 32000 148.9330 471.5346 486.6256 32.3846 -96989.3853 8338.4387 0.0000 0.0000 15330.6408 -72180.8279 294.4385 -87511.4687 -72146.9366 296.9683 -147.8319 -109.8556 256473.6171 -209.0688 -209.0371
TCL: namdcph) Proposal rejected.
TCL: Running for 500 steps without repeating first step
TCL: namdcph) Proposal rejected.
TCL: Running for 500 steps without repeating first step
ETITLE: TS BOND ANGLE DIHED IMPRP ELECT VDW BOUNDARY MISC KINETIC TOTAL TEMP POTENTIAL TOTAL3 TEMPAVG PRESSURE GPRESSURE VOLUME PRESSAVG GPRESSAVG
ENERGY: 33000 144.5904 488.2418 469.0632 25.0026 -97684.5764 8631.4580 0.0000 0.0000 15356.3008 -72569.9197 294.9313 -87926.2205 -72533.1069 295.9596 -49.7831 -13.6793 256473.6171 -222.0123 -222.0575
TCL: namdcph) Proposal rejected.
TCL: Running for 500 steps without repeating first step
TCL: namdcph) Proposal rejected.
TCL: Running for 500 steps without repeating first step
ETITLE: TS BOND ANGLE DIHED IMPRP ELECT VDW BOUNDARY MISC KINETIC TOTAL TEMP POTENTIAL TOTAL3 TEMPAVG PRESSURE GPRESSURE VOLUME PRESSAVG GPRESSAVG
ENERGY: 34000 159.6526 492.7067 479.4994 24.7552 -97254.2734 8305.6528 0.0000 0.0000 15485.4933 -72306.5134 297.4125 -87792.0066 -72270.3349 295.5893 -318.7664 -278.0553 256473.6171 -209.7361 -209.7721
TCL: namdcph) Proposal rejected.
TCL: Running for 500 steps without repeating first step
TCL: namdcph) Proposal rejected.
TCL: Running for 500 steps without repeating first step
ETITLE: TS BOND ANGLE DIHED IMPRP ELECT VDW BOUNDARY MISC KINETIC TOTAL TEMP POTENTIAL TOTAL3 TEMPAVG PRESSURE GPRESSURE VOLUME PRESSAVG GPRESSAVG
ENERGY: 35000 161.6351 475.6620 490.3695 36.3050 -97317.8042 8245.8775 0.0000 0.0000 15503.9621 -72403.9931 297.7673 -87907.9551 -72370.6518 296.1798 -460.5350 -424.8403 256473.6171 -173.8101 -173.9302
TCL: namdcph) Proposal rejected.
TCL: Running for 500 steps without repeating first step
TCL: namdcph) Proposal rejected.
TCL: Running for 500 steps without repeating first step
ETITLE: TS BOND ANGLE DIHED IMPRP ELECT VDW BOUNDARY MISC KINETIC TOTAL TEMP POTENTIAL TOTAL3 TEMPAVG PRESSURE GPRESSURE VOLUME PRESSAVG GPRESSAVG
ENERGY: 36000 168.5575 488.9581 476.1497 32.4501 -97428.3793 8385.9123 0.0000 0.0000 15397.0776 -72479.2740 295.7144 -87876.3516 -72442.4691 295.6262 -310.0405 -283.1904 256473.6171 -204.5263 -204.5947
TCL: namdcph) Proposal rejected.
TCL: Running for 500 steps without repeating first step
TCL: namdcph) Proposal rejected.
TCL: Running for 500 steps without repeating first step
ETITLE: TS BOND ANGLE DIHED IMPRP ELECT VDW BOUNDARY MISC KINETIC TOTAL TEMP POTENTIAL TOTAL3 TEMPAVG PRESSURE GPRESSURE VOLUME PRESSAVG GPRESSAVG
ENERGY: 37000 157.2705 471.6251 468.0974 32.7056 -97222.5369 8427.3130 0.0000 0.0000 15359.1707 -72306.3548 294.9864 -87665.5255 -72270.6091 296.0649 -140.8874 -104.3406 256473.6171 -226.8505 -226.7586
TCL: namdcph) Proposal rejected.
TCL: Running for 500 steps without repeating first step
TCL: namdcph) Proposal rejected.
TCL: Running for 500 steps without repeating first step
ETITLE: TS BOND ANGLE DIHED IMPRP ELECT VDW BOUNDARY MISC KINETIC TOTAL TEMP POTENTIAL TOTAL3 TEMPAVG PRESSURE GPRESSURE VOLUME PRESSAVG GPRESSAVG
ENERGY: 38000 165.2459 476.9813 486.6567 27.6797 -97339.6616 8436.8432 0.0000 0.0000 15609.2461 -72137.0087 299.7893 -87746.2547 -72096.9079 297.4462 -180.1890 -148.4164 256473.6171 -107.8819 -107.8071
TCL: namdcph) Proposal rejected.
TCL: Running for 500 steps without repeating first step
TCL: namdcph) Proposal rejected.
TCL: Running for 500 steps without repeating first step
