Info: SIMULATION PARAMETERS:
Info: TIMESTEP               2
Info: NUMBER OF STEPS        0
Info: STEPS PER CYCLE        20
Info: PERIODIC CELL BASIS 1  44.256 0 0
Info: PERIODIC CELL BASIS 2  0 55.2372 0
Info: PERIODIC CELL BASIS 3  0 0 104.307
Info: PERIODIC CELL CENTER   0.236852 0.455951 2.74095
Info: WRAPPING WATERS AROUND PERIODIC BOUNDARIES ON OUTPUT.
Info: WRAPPING ALL CLUSTERS AROUND PERIODIC BOUNDARIES ON OUTPUT.
Info: FIRST LDB TIMESTEP     100
Info: LAST LDB TIMESTEP     -1
Info: HOM BACKGROUND SCALING 1
Info: PME BACKGROUND SCALING 1
Info: MIN ATOMS PER PATCH    40
Info: INITIAL TEMPERATURE    298
Info: CENTER OF MASS MOVING INITIALLY? NO
Info: DIELECTRIC             1
Info: EXCLUDE                SCALED ONE-FOUR
Info: 1-4 ELECTROSTATICS SCALED BY 1
Info: MODIFIED 1-4 VDW PARAMETERS WILL BE USED
Info: DCD FILENAME           7/Pre7_0.dcd
Info: DCD FREQUENCY          1000
Info: DCD FIRST STEP         1000
Info: DCD FILE WILL CONTAIN UNIT CELL DATA
Info: NO EXTENDED SYSTEM TRAJECTORY OUTPUT
Info: NO VELOCITY DCD OUTPUT
Info: NO FORCE DCD OUTPUT
Info: OUTPUT FILENAME        7/Pre7_0
Info: BINARY OUTPUT FILES WILL BE USED
Info: NO RESTART FILE
Info: SWITCHING ACTIVE
Info: VDW FORCE SWITCHING ACTIVE
Info: SWITCHING ON           10
Info: SWITCHING OFF          12
Info: PAIRLIST DISTANCE      14
Info: PAIRLIST SHRINK RATE   0.01
Info: PAIRLIST GROW RATE     0.01
Info: PAIRLIST TRIGGER       0.3
Info: PAIRLISTS PER CYCLE    2
Info: PAIRLISTS ENABLED
Info: MARGIN                 2
Info: HYDROGEN GROUP CUTOFF  2.5
Info: PATCH DIMENSION        18.5
Info: ENERGY OUTPUT STEPS    1000
Info: CROSSTERM ENERGY INCLUDED IN DIHEDRAL
Info: TIMING OUTPUT STEPS    10000
Info: THERMODYNAMIC INTEGRATION (TI) ON
Info: TI LAMBDA VALUE     0
Info: TI INTRA-ALCHEMICAL NON-BONDED INTERACTIONS WILL BE DECOUPLED
Info: TI INTRA-ALCHEMICAL BONDED INTERACTIONS WILL BE DECOUPLED
Info: TI VDW SHIFTING COEFFICIENT 0
Info: TI ELEC. ACTIVE FOR ANNIHILATED PARTICLES BETWEEN LAMBDA = 0 AND LAMBDA = 1
Info: TI ELEC. ACTIVE FOR EXNIHILATED PARTICLES BETWEEN LAMBDA = 0 AND LAMBDA = 1
Info: TI VDW ACTIVE FOR ANNIHILATED PARTICLES BETWEEN LAMBDA = 0 AND LAMBDA = 1
Info: TI VDW ACTIVE FOR EXNIHILATED PARTICLES BETWEEN LAMBDA = 0 AND LAMBDA = 1
Info: TI BOND ACTIVE FOR ANNIHILATED PARTICLES BETWEEN LAMBDA = 0 AND LAMBDA = 1
Info: TI BOND ACTIVE FOR EXNIHILATED PARTICLES BETWEEN LAMBDA = 0 AND LAMBDA = 1
Info: LANGEVIN DYNAMICS ACTIVE
Info: LANGEVIN TEMPERATURE   298
Info: LANGEVIN USING BBK INTEGRATOR
Info: LANGEVIN DAMPING COEFFICIENT IS 1 INVERSE PS
Info: LANGEVIN DYNAMICS NOT APPLIED TO HYDROGENS
Info: PARTICLE MESH EWALD (PME) ACTIVE
Info: PME TOLERANCE               1e-06
Info: PME EWALD COEFFICIENT       0.257952
Info: PME INTERPOLATION ORDER     4
Info: PME GRID DIMENSIONS         48 56 108
Info: PME MAXIMUM GRID SPACING    1
Info: FULL ELECTROSTATIC EVALUATION FREQUENCY      2
Info: USING VERLET I (r-RESPA) MTS SCHEME.
Info: C1 SPLITTING OF LONG RANGE ELECTROSTATICS
Info: PLACING ATOMS IN PATCHES BY HYDROGEN GROUPS
Info: RIGID BONDS TO HYDROGEN : ALL
Info:         ERROR TOLERANCE : 1e-08
Info:          MAX ITERATIONS : 100
Info: RIGID WATER USING SETTLE ALGORITHM
Info: RANDOM NUMBER SEED     1688681990
Info: USE HYDROGEN BONDS?    NO
Info: COORDINATE PDB         ../topology/preD950N.pdb
Info: STRUCTURE FILE         ../topology/preD950N.psf
Info: PARAMETER file: CHARMM format!
Info: PARAMETERS             ../../toppar/par_all36_carb.prm
Info: PARAMETERS             ../../toppar/par_all36_cgenff.prm
Info: PARAMETERS             ../../toppar/par_all36_lipid.prm
Info: PARAMETERS             ../../toppar/par_all36_na.prm
Info: PARAMETERS             ../../toppar/par_all36_prot.prm
Info: PARAMETERS             ../../toppar/par_all36_solvent.prm
Info: PARAMETERS             ../../toppar/par_cph36_prot.prm
Info: PARAMETERS             ../../toppar/toppar_all36_carb_glycopeptide.str
Info: PARAMETERS             ../../toppar/toppar_water_ions_namd.str
Info: USING ARITHMETIC MEAN TO COMBINE L-J SIGMA PARAMETERS
Info: SKIPPING rtf SECTION IN STREAM FILE
Info: SKIPPING rtf SECTION IN STREAM FILE
Info: SUMMARY OF PARAMETERS:
Info: 925 BONDS
Info: 2696 ANGLES
Info: 6608 DIHEDRAL
Info: 195 IMPROPER
Info: 6 CROSSTERM
Info: 366 VDW
Info: 6 VDW_PAIRS
Info: 0 NBTHOLE_PAIRS
Info: READING EXTRA BONDS FILE 7/namdcph.sw.extrabonds
Info: To read alchdata from file: coordinate pdb file (default)
Info: To read alchflag data from column: 5
Info: LONG-RANGE LJ: APPLYING ANALYTICAL CORRECTIONS TO ENERGY AND PRESSURE
Info: LONG-RANGE LJ: AVERAGE A0 AND B0 COEFFICIENTS 70944.9 AND 74.5871
Info: LONG-RANGE LJ: AVERAGE A1 AND B1 COEFFICIENTS 70944.9 AND 74.5871
Info: STRUCTURE SUMMARY:
Info: 25807 ATOMS
Info: 17460 BONDS
Info: 9855 ANGLES
Info: 2254 DIHEDRALS
Info: 177 IMPROPERS
Info: 54 CROSSTERMS
Info: 0 EXCLUSIONS
Info: 25336 RIGID BONDS
Info: ALCH: 0 ATOMS TO DISAPPEAR IN FINAL STATE
Info: ALCH: 0 ATOMS TO APPEAR IN FINAL STATE
Info: 52085 DEGREES OF FREEDOM
Info: 8771 HYDROGEN GROUPS
Info: 4 ATOMS IN LARGEST HYDROGEN GROUP
Info: 8771 MIGRATION GROUPS
Info: 4 ATOMS IN LARGEST MIGRATION GROUP
Info: TOTAL MASS = 156962 amu
Info: TOTAL CHARGE = 4.35859e-07 e
Info: MASS DENSITY = 1.02219 g/cm^3
Info: ATOM DENSITY = 0.101209 atoms/A^3
Info: ADDED 29563 IMPLICIT EXCLUSIONS
Info: NONBONDED TABLE R-SQUARED SPACING: 0.0625
Info: NONBONDED TABLE SIZE: 769 POINTS
Info: REMOVING COM VELOCITY 0.0279365 0.0694605 0.0712594
TCL: Setting parameter alchLambdaFreq to 1
Info: NONBONDED TABLE R-SQUARED SPACING: 0.0625
Info: NONBONDED TABLE SIZE: 769 POINTS
TCL: Setting parameter alch to off
Info: NONBONDED TABLE R-SQUARED SPACING: 0.0625
Info: NONBONDED TABLE SIZE: 769 POINTS
TCL: namdcph) initializing constant pH PSF...
TCL: WARNING! Building new atom PP1:918:HE1 with unknown mass.
TCL:          This may cause issues, for example, with mass repartitioning.
TCL: WARNING! Building new atom PP1:918:HE2 with unknown mass.
TCL:          This may cause issues, for example, with mass repartitioning.
TCL: WARNING! Building new atom PP1:936:HD1 with unknown mass.
TCL:          This may cause issues, for example, with mass repartitioning.
TCL: WARNING! Building new atom PP1:936:HD2 with unknown mass.
TCL:          This may cause issues, for example, with mass repartitioning.
TCL: cphpsfgen) creating new alchemical side chain for PP1:918:GLU
TCL: cphpsfgen) merging alchemical sidechains for PP1:918:GLU
TCL: cphpsfgen) creating new alchemical side chain for PP1:921:LYS
TCL: cphpsfgen) merging alchemical sidechains for PP1:921:LYS
TCL: cphpsfgen) creating new alchemical side chain for PP1:933:LYS
TCL: cphpsfgen) merging alchemical sidechains for PP1:933:LYS
TCL: cphpsfgen) creating new alchemical side chain for PP1:936:ASP
TCL: cphpsfgen) merging alchemical sidechains for PP1:936:ASP
TCL: cphpsfgen) creating new alchemical side chain for PP1:947:LYS
TCL: cphpsfgen) merging alchemical sidechains for PP1:947:LYS
TCL: cphpsfgen) creating new alchemical side chain for PP1:964:LYS
TCL: cphpsfgen) merging alchemical sidechains for PP1:964:LYS
TCL: namdcph) ***************************************
TCL: namdcph) CONSTANT pH MD ACTIVE
TCL: namdcph) SYSTEM pH 7
TCL: namdcph) CONSTANT pH CONFIGURATION FILE(S)
TCL: namdcph) ../../toppar/conf_cph36_prot.json
TCL: namdcph) NONEQUILIBRIUM SWITCH PARAMETERS:
TCL: namdcph) ALCHEMICAL FORCE CONSTANT 100.0 kcal/mol-A^2
TCL: namdcph) neMD/MC CRITERION TEMPERATURE 298.0
TCL: namdcph) TEMPORARY FILE INFORMATION:
TCL: namdcph) cpH TOPOLOGY FILE BASENAME 7/namdcph.md
TCL: namdcph) neMD/MC TRAJECTORY BASENAME 7/namdcph.sw
TCL: namdcph) ***************************************
TCL: namdcph) ***************************************
TCL: namdcph) TITRATABLE RESIDUE DEFINITIONS:
TCL: namdcph) HIS ASP GLU CYS LYS
TCL: namdcph) TITRATABLE SYSTEM SUMMARY:
TCL: namdcph) 6 RESIDUE(S)
TCL: namdcph) 16 PROTONATION SITE(S)
TCL: namdcph) ***************************************
TCL: namdcph) segid:resid:resname : state : pKai
TCL: namdcph) PP1:918:GLU         :     D : 5.90
TCL: namdcph) PP1:921:LYS         :     P : 9.77
TCL: namdcph) PP1:933:LYS         :     P : 9.54
TCL: namdcph) PP1:936:ASP         :     D : 5.26
TCL: namdcph) PP1:947:LYS         :     P : 9.83
TCL: namdcph) PP1:964:LYS         :     P : 9.68
TCL: namdcph) ***************************************
TCL: namdcph) *************************************************
TCL: namdcph) CONSTANT pH neMD/MC MOVES:
TCL: namdcph) MAX. ATTEMPTS PER CYCLE: 1
TCL: namdcph) ONE RESIDUE MOVES
TCL: namdcph) move label     : numsteps   weight
TCL: namdcph) PP1:918:GLU    :    75000     1.00
TCL: namdcph) PP1:921:LYS    :    75000     1.00
TCL: namdcph) PP1:933:LYS    :    75000     1.00
TCL: namdcph) PP1:936:ASP    :    75000     1.00
TCL: namdcph) PP1:947:LYS    :    75000     1.00
TCL: namdcph) PP1:964:LYS    :    75000     1.00
TCL: namdcph) *************************************************
TCL: namdcph) clearing extraBondsFile 7/namdcph.sw.extrabonds
TCL: Reloading molecular structure from file 7/namdcph.md.psf and pdb file 7/namdcph.md.pdb
Info: READING EXTRA BONDS FILE 7/namdcph.sw.extrabonds
Info: LONG-RANGE LJ: APPLYING ANALYTICAL CORRECTIONS TO ENERGY AND PRESSURE
Info: LONG-RANGE LJ: AVERAGE A AND B COEFFICIENTS 70944.9 AND 74.5871
Info: STRUCTURE SUMMARY:
Info: 25811 ATOMS
Info: 17464 BONDS
Info: 9859 ANGLES
Info: 2262 DIHEDRALS
Info: 177 IMPROPERS
Info: 54 CROSSTERMS
Info: 0 EXCLUSIONS
Info: 25340 RIGID BONDS
Info: 52093 DEGREES OF FREEDOM
Info: 8771 HYDROGEN GROUPS
Info: 4 ATOMS IN LARGEST HYDROGEN GROUP
Info: 8771 MIGRATION GROUPS
Info: 4 ATOMS IN LARGEST MIGRATION GROUP
Info: TOTAL MASS = 156966 amu
Info: TOTAL CHARGE = 4.35859e-07 e
Info: MASS DENSITY = 1.02222 g/cm^3
Info: ATOM DENSITY = 0.101224 atoms/A^3
Info: ADDED 29579 IMPLICIT EXCLUSIONS
Info: NONBONDED TABLE R-SQUARED SPACING: 0.0625
Info: NONBONDED TABLE SIZE: 769 POINTS
TCL: Reinitializing atom data from files with basename 7/namdcph.md
Info: REMOVING COM VELOCITY -0.000638288 0.00086518 -0.00392016
TCL: Minimizing for 300 steps
ETITLE: TS BOND ANGLE DIHED IMPRP ELECT VDW BOUNDARY MISC KINETIC TOTAL TEMP POTENTIAL TOTAL3 TEMPAVG PRESSURE GPRESSURE VOLUME PRESSAVG GPRESSAVG
ENERGY: 0 50.8377 99.7002 448.8506 0.5632 -79851.1741 99999999999.9999 0.0000 0.0000 0.0000 99999999999.9999 0.0000 99999999999.9999 99999999999.9999 0.0000 99999999999.9999 99999999999.9999 254987.8783 99999999999.9999 99999999999.9999
ENERGY: 60 76.6395 140.6778 439.1389 8.7325 -95816.4972 10805.1981 0.0000 0.0000 0.0000 -84346.1105 0.0000 -84346.1105 -84346.1105 0.0000 22843.2591 4054.5919 254987.8783 22843.2591 4054.5919
ENERGY: 120 171.2477 189.1746 440.8805 19.2989 -101446.5501 8951.1813 0.0000 0.0000 0.0000 -91674.7671 0.0000 -91674.7671 -91674.7671 0.0000 20054.8026 88.0166 254987.8783 20054.8026 88.0166
ENERGY: 180 65.9109 168.1285 435.6598 11.6385 -104753.0542 8624.6978 0.0000 0.0000 0.0000 -95447.0188 0.0000 -95447.0188 -95447.0188 0.0000 19205.1369 -1506.7692 254987.8783 19205.1369 -1506.7692
ENERGY: 240 69.8471 177.1570 428.2201 11.6708 -107893.9244 9322.3432 0.0000 0.0000 0.0000 -97884.6863 0.0000 -97884.6863 -97884.6863 0.0000 19895.7253 19833.0780 254987.8783 19895.7253 19833.0780
ENERGY: 300 66.4897 170.4270 427.9933 11.5816 -109711.1234 9602.4402 0.0000 0.0000 0.0000 -99432.1916 0.0000 -99432.1916 -99432.1916 0.0000 20073.9036 20025.3017 254987.8783 20073.9036 20025.3017
TCL: Setting parameter firstTimeStep to 0
TCL: Running for 500 steps
ETITLE: TS BOND ANGLE DIHED IMPRP ELECT VDW BOUNDARY MISC KINETIC TOTAL TEMP POTENTIAL TOTAL3 TEMPAVG PRESSURE GPRESSURE VOLUME PRESSAVG GPRESSAVG
ENERGY: 0 66.4897 170.4270 427.9933 11.5816 -109711.1234 9602.4402 0.0000 0.0000 15429.3896 -84002.8020 298.0985 -99432.1916 -84016.1212 298.0985 -3128.7291 -3071.1272 254987.8783 -3128.7291 -3071.1272
TCL: namdcph) Proposal rejected.
TCL: Running for 500 steps without repeating first step
ETITLE: TS BOND ANGLE DIHED IMPRP ELECT VDW BOUNDARY MISC KINETIC TOTAL TEMP POTENTIAL TOTAL3 TEMPAVG PRESSURE GPRESSURE VOLUME PRESSAVG GPRESSAVG
ENERGY: 1000 150.7887 443.8384 501.6001 27.7650 -102491.2888 9639.7550 0.0000 0.0000 12984.0705 -78743.4711 250.8545 -91727.5416 -78712.5598 226.9112 -728.2288 -690.0218 254987.8783 -734.1015 -734.1918
TCL: namdcph) Proposal rejected.
TCL: Running for 500 steps without repeating first step
TCL: namdcph) Proposal rejected.
TCL: Running for 500 steps without repeating first step
ETITLE: TS BOND ANGLE DIHED IMPRP ELECT VDW BOUNDARY MISC KINETIC TOTAL TEMP POTENTIAL TOTAL3 TEMPAVG PRESSURE GPRESSURE VOLUME PRESSAVG GPRESSAVG
ENERGY: 2000 138.3358 481.4883 497.2881 35.0082 -99816.5446 8944.1087 0.0000 0.0000 13865.9450 -75854.3705 267.8925 -89720.3154 -75819.5079 261.5630 -582.8372 -544.1862 254987.8783 -615.5476 -615.5626
TCL: namdcph) Proposal rejected.
TCL: Running for 500 steps without repeating first step
TCL: namdcph) Proposal rejected.
TCL: Running for 500 steps without repeating first step
ETITLE: TS BOND ANGLE DIHED IMPRP ELECT VDW BOUNDARY MISC KINETIC TOTAL TEMP POTENTIAL TOTAL3 TEMPAVG PRESSURE GPRESSURE VOLUME PRESSAVG GPRESSAVG
ENERGY: 3000 157.4937 475.4351 492.6965 31.1807 -98704.1105 8823.5072 0.0000 0.0000 14676.2585 -74047.5387 283.5479 -88723.7972 -74011.1992 276.7706 -347.0193 -314.1337 254987.8783 -426.7453 -426.7291
TCL: namdcph) Proposal rejected.
TCL: Running for 500 steps without repeating first step
TCL: namdcph) Proposal rejected.
TCL: Running for 500 steps without repeating first step
ETITLE: TS BOND ANGLE DIHED IMPRP ELECT VDW BOUNDARY MISC KINETIC TOTAL TEMP POTENTIAL TOTAL3 TEMPAVG PRESSURE GPRESSURE VOLUME PRESSAVG GPRESSAVG
ENERGY: 4000 163.1302 455.7053 481.9381 33.9765 -97786.3515 8625.8321 0.0000 0.0000 15052.2711 -72973.4983 290.8125 -88025.7694 -72936.3919 285.0685 -318.4825 -283.0560 254987.8783 -407.3263 -407.4252
TCL: namdcph) Proposal rejected.
TCL: Running for 500 steps without repeating first step
TCL: namdcph) Proposal rejected.
TCL: Running for 500 steps without repeating first step
ETITLE: TS BOND ANGLE DIHED IMPRP ELECT VDW BOUNDARY MISC KINETIC TOTAL TEMP POTENTIAL TOTAL3 TEMPAVG PRESSURE GPRESSURE VOLUME PRESSAVG GPRESSAVG
ENERGY: 5000 152.0242 455.1557 485.6902 34.7784 -97434.8084 8473.8244 0.0000 0.0000 15283.7285 -72549.6071 295.2843 -87833.3355 -72508.6240 290.6097 -278.7605 -239.4344 254987.8783 -270.7623 -270.8764
TCL: namdcph) Proposal rejected.
TCL: Running for 500 steps without repeating first step
TCL: namdcph) Proposal rejected.
TCL: Running for 500 steps without repeating first step
ETITLE: TS BOND ANGLE DIHED IMPRP ELECT VDW BOUNDARY MISC KINETIC TOTAL TEMP POTENTIAL TOTAL3 TEMPAVG PRESSURE GPRESSURE VOLUME PRESSAVG GPRESSAVG
ENERGY: 6000 151.9641 475.5452 483.5793 31.1499 -97154.3335 8457.8522 0.0000 0.0000 15162.1285 -72392.1143 292.9349 -87554.2427 -72353.2483 292.2723 -313.9037 -281.9813 254987.8783 -222.8048 -222.7044
TCL: namdcph) Proposal rejected.
TCL: Running for 500 steps without repeating first step
TCL: namdcph) Proposal rejected.
TCL: Running for 500 steps without repeating first step
ETITLE: TS BOND ANGLE DIHED IMPRP ELECT VDW BOUNDARY MISC KINETIC TOTAL TEMP POTENTIAL TOTAL3 TEMPAVG PRESSURE GPRESSURE VOLUME PRESSAVG GPRESSAVG
ENERGY: 7000 156.9383 500.3726 477.4064 33.5097 -96761.9182 8378.7405 0.0000 0.0000 15162.4614 -72052.4894 292.9414 -87214.9507 -72013.2192 294.9394 -194.6176 -159.5125 254987.8783 -179.2006 -179.1674
TCL: namdcph) Proposal rejected.
TCL: Running for 500 steps without repeating first step
TCL: namdcph) Proposal rejected.
TCL: Running for 500 steps without repeating first step
ETITLE: TS BOND ANGLE DIHED IMPRP ELECT VDW BOUNDARY MISC KINETIC TOTAL TEMP POTENTIAL TOTAL3 TEMPAVG PRESSURE GPRESSURE VOLUME PRESSAVG GPRESSAVG
ENERGY: 8000 156.7723 512.3059 478.9403 40.5331 -97072.0752 8577.8028 0.0000 0.0000 15359.5465 -71946.1742 296.7491 -87305.7208 -71913.0136 296.0690 -163.4046 -132.2203 254987.8783 -165.6142 -165.5227
TCL: namdcph) Proposal rejected.
TCL: Running for 500 steps without repeating first step
TCL: namdcph) Proposal rejected.
TCL: Running for 500 steps without repeating first step
ETITLE: TS BOND ANGLE DIHED IMPRP ELECT VDW BOUNDARY MISC KINETIC TOTAL TEMP POTENTIAL TOTAL3 TEMPAVG PRESSURE GPRESSURE VOLUME PRESSAVG GPRESSAVG
ENERGY: 9000 138.2750 502.9974 491.4986 30.0789 -96861.5348 8355.7560 0.0000 0.0000 15308.7436 -72034.1854 295.7676 -87342.9289 -71998.9609 295.4873 -250.0208 -214.0659 254987.8783 -205.4555 -205.4375
TCL: namdcph) Proposal rejected.
TCL: Running for 500 steps without repeating first step
TCL: namdcph) Proposal rejected.
TCL: Running for 500 steps without repeating first step
ETITLE: TS BOND ANGLE DIHED IMPRP ELECT VDW BOUNDARY MISC KINETIC TOTAL TEMP POTENTIAL TOTAL3 TEMPAVG PRESSURE GPRESSURE VOLUME PRESSAVG GPRESSAVG
ENERGY: 10000 150.3887 494.5603 479.9993 28.9041 -96626.4000 8244.8202 0.0000 0.0000 15242.4395 -71985.2878 294.4866 -87227.7273 -71948.1881 295.8690 -470.4629 -436.2050 254987.8783 -186.1249 -186.1021
TCL: namdcph) Proposal rejected.
TCL: Running for 500 steps without repeating first step
TCL: namdcph) Proposal rejected.
TCL: Running for 500 steps without repeating first step
ETITLE: TS BOND ANGLE DIHED IMPRP ELECT VDW BOUNDARY MISC KINETIC TOTAL TEMP POTENTIAL TOTAL3 TEMPAVG PRESSURE GPRESSURE VOLUME PRESSAVG GPRESSAVG
ENERGY: 11000 157.6732 482.3003 479.7807 27.8281 -96737.1071 8291.4277 0.0000 0.0000 15359.2824 -71938.8147 296.7440 -87298.0972 -71906.6961 295.7167 -310.1702 -276.5579 254987.8783 -203.3374 -203.2989
TCL: namdcph) Proposal rejected.
TCL: Running for 500 steps without repeating first step
TCL: namdcph) Proposal rejected.
TCL: Running for 500 steps without repeating first step
ETITLE: TS BOND ANGLE DIHED IMPRP ELECT VDW BOUNDARY MISC KINETIC TOTAL TEMP POTENTIAL TOTAL3 TEMPAVG PRESSURE GPRESSURE VOLUME PRESSAVG GPRESSAVG
ENERGY: 12000 142.9856 512.0976 492.1569 30.9245 -96606.8673 8304.8682 0.0000 0.0000 15402.2219 -71721.6127 297.5736 -87123.8345 -71679.8147 297.8426 -320.6645 -285.0602 254987.8783 -102.2957 -102.2603
TCL: namdcph) Proposal rejected.
TCL: Running for 500 steps without repeating first step
TCL: namdcph) Proposal rejected.
TCL: Running for 500 steps without repeating first step
ETITLE: TS BOND ANGLE DIHED IMPRP ELECT VDW BOUNDARY MISC KINETIC TOTAL TEMP POTENTIAL TOTAL3 TEMPAVG PRESSURE GPRESSURE VOLUME PRESSAVG GPRESSAVG
ENERGY: 13000 177.2305 496.3049 486.5324 38.2608 -96414.0789 8277.6726 0.0000 0.0000 15449.5938 -71488.4839 298.4888 -86938.0777 -71452.7429 298.7655 -250.5599 -221.3322 254987.8783 -170.4314 -170.5225
TCL: namdcph) Proposal rejected.
TCL: Running for 500 steps without repeating first step
TCL: namdcph) Proposal rejected.
TCL: Running for 500 steps without repeating first step
ETITLE: TS BOND ANGLE DIHED IMPRP ELECT VDW BOUNDARY MISC KINETIC TOTAL TEMP POTENTIAL TOTAL3 TEMPAVG PRESSURE GPRESSURE VOLUME PRESSAVG GPRESSAVG
ENERGY: 14000 176.5524 468.5450 484.9169 30.6207 -96294.1806 8161.0759 0.0000 0.0000 15504.8657 -71467.6040 299.5567 -86972.4697 -71424.5484 298.9831 -438.5455 -402.7249 254987.8783 -236.9702 -236.9889
TCL: namdcph) Proposal rejected.
TCL: Running for 500 steps without repeating first step
TCL: namdcph) Proposal rejected.
TCL: Running for 500 steps without repeating first step
ETITLE: TS BOND ANGLE DIHED IMPRP ELECT VDW BOUNDARY MISC KINETIC TOTAL TEMP POTENTIAL TOTAL3 TEMPAVG PRESSURE GPRESSURE VOLUME PRESSAVG GPRESSAVG
ENERGY: 15000 176.2447 470.8121 484.5278 26.7107 -96276.0458 8079.3942 0.0000 0.0000 15589.0473 -71449.3089 301.1831 -87038.3562 -71416.7772 299.2793 -528.2554 -486.7040 254987.8783 -202.6940 -202.7751
TCL: namdcph) Proposal rejected.
TCL: Running for 500 steps without repeating first step
TCL: namdcph) Proposal rejected.
TCL: Running for 500 steps without repeating first step
ETITLE: TS BOND ANGLE DIHED IMPRP ELECT VDW BOUNDARY MISC KINETIC TOTAL TEMP POTENTIAL TOTAL3 TEMPAVG PRESSURE GPRESSURE VOLUME PRESSAVG GPRESSAVG
ENERGY: 16000 149.3791 496.7337 478.9892 35.3832 -96499.1201 8343.3854 0.0000 0.0000 15449.7549 -71545.4947 298.4919 -86995.2496 -71505.9276 299.4546 -79.3271 -44.9165 254987.8783 -111.9593 -111.9940
TCL: namdcph) Proposal rejected.
TCL: Running for 500 steps without repeating first step
TCL: namdcph) Proposal rejected.
TCL: Running for 500 steps without repeating first step
ETITLE: TS BOND ANGLE DIHED IMPRP ELECT VDW BOUNDARY MISC KINETIC TOTAL TEMP POTENTIAL TOTAL3 TEMPAVG PRESSURE GPRESSURE VOLUME PRESSAVG GPRESSAVG
ENERGY: 17000 174.8964 485.2738 486.7405 27.6753 -96394.4680 8136.5633 0.0000 0.0000 15395.9974 -71687.3212 297.4533 -87083.3187 -71646.6608 298.4709 -465.9575 -426.2333 254987.8783 -217.7402 -217.5798
TCL: namdcph) Proposal rejected.
TCL: Running for 500 steps without repeating first step
TCL: namdcph) Proposal rejected.
TCL: Running for 500 steps without repeating first step
ETITLE: TS BOND ANGLE DIHED IMPRP ELECT VDW BOUNDARY MISC KINETIC TOTAL TEMP POTENTIAL TOTAL3 TEMPAVG PRESSURE GPRESSURE VOLUME PRESSAVG GPRESSAVG
ENERGY: 18000 172.1779 481.5538 484.7590 33.2701 -96549.3839 8217.5766 0.0000 0.0000 15400.0283 -71760.0181 297.5312 -87160.0464 -71720.0899 297.1099 -409.2024 -375.9052 254987.8783 -218.1124 -217.9963
TCL: namdcph) Proposal rejected.
TCL: Running for 500 steps without repeating first step
TCL: namdcph) Proposal rejected.
TCL: Running for 500 steps without repeating first step
ETITLE: TS BOND ANGLE DIHED IMPRP ELECT VDW BOUNDARY MISC KINETIC TOTAL TEMP POTENTIAL TOTAL3 TEMPAVG PRESSURE GPRESSURE VOLUME PRESSAVG GPRESSAVG
ENERGY: 19000 188.1905 486.6730 481.7903 36.2802 -96840.8429 8450.4092 0.0000 0.0000 15451.7133 -71745.7863 298.5298 -87197.4996 -71705.6351 296.5757 -281.3278 -249.0465 254987.8783 -203.0583 -203.0257
TCL: namdcph) Proposal rejected.
TCL: Running for 500 steps without repeating first step
TCL: namdcph) Proposal rejected.
TCL: Running for 500 steps without repeating first step
ETITLE: TS BOND ANGLE DIHED IMPRP ELECT VDW BOUNDARY MISC KINETIC TOTAL TEMP POTENTIAL TOTAL3 TEMPAVG PRESSURE GPRESSURE VOLUME PRESSAVG GPRESSAVG
ENERGY: 20000 150.8384 506.3886 483.4087 31.9701 -96903.4424 8371.1176 0.0000 0.0000 15303.5922 -72056.1269 295.6681 -87359.7191 -72019.8954 296.5910 -297.3873 -260.8157 254987.8783 -148.8191 -148.7996
TCL: namdcph) Proposal rejected.
TCL: Running for 500 steps without repeating first step
TCL: namdcph) Proposal rejected.
TCL: Running for 500 steps without repeating first step
ETITLE: TS BOND ANGLE DIHED IMPRP ELECT VDW BOUNDARY MISC KINETIC TOTAL TEMP POTENTIAL TOTAL3 TEMPAVG PRESSURE GPRESSURE VOLUME PRESSAVG GPRESSAVG
ENERGY: 21000 178.1726 485.8526 475.2911 32.7915 -96758.2864 8377.6613 0.0000 0.0000 15391.6461 -71816.8711 297.3693 -87208.5172 -71778.7139 297.0228 -203.9892 -170.7288 254987.8783 -148.2739 -148.2238
TCL: namdcph) Proposal rejected.
TCL: Running for 500 steps without repeating first step
TCL: namdcph) Proposal rejected.
TCL: Running for 500 steps without repeating first step
ETITLE: TS BOND ANGLE DIHED IMPRP ELECT VDW BOUNDARY MISC KINETIC TOTAL TEMP POTENTIAL TOTAL3 TEMPAVG PRESSURE GPRESSURE VOLUME PRESSAVG GPRESSAVG
ENERGY: 22000 157.5236 479.4791 471.0821 32.7551 -97292.9003 8544.1196 0.0000 0.0000 15428.8919 -72179.0489 298.0889 -87607.9408 -72142.0245 296.6455 -144.4371 -111.6275 254987.8783 -116.9153 -117.0967
TCL: namdcph) Proposal rejected.
TCL: Running for 500 steps without repeating first step
TCL: namdcph) Proposal rejected.
TCL: Running for 500 steps without repeating first step
ETITLE: TS BOND ANGLE DIHED IMPRP ELECT VDW BOUNDARY MISC KINETIC TOTAL TEMP POTENTIAL TOTAL3 TEMPAVG PRESSURE GPRESSURE VOLUME PRESSAVG GPRESSAVG
ENERGY: 23000 175.3239 480.8804 475.0242 32.9662 -96714.7354 8340.1020 0.0000 0.0000 15318.6524 -71891.7862 295.9590 -87210.4386 -71857.7204 295.1012 -411.3706 -371.0832 254987.8783 -245.1349 -245.0249
TCL: namdcph) Proposal rejected.
TCL: Running for 500 steps without repeating first step
TCL: namdcph) Proposal rejected.
TCL: Running for 500 steps without repeating first step
ETITLE: TS BOND ANGLE DIHED IMPRP ELECT VDW BOUNDARY MISC KINETIC TOTAL TEMP POTENTIAL TOTAL3 TEMPAVG PRESSURE GPRESSURE VOLUME PRESSAVG GPRESSAVG
ENERGY: 24000 176.8176 475.1481 467.6017 31.9442 -96893.4677 8408.2029 0.0000 0.0000 15371.1239 -71962.6293 296.9728 -87333.7532 -71924.6415 296.9180 -223.3385 -187.1379 254987.8783 -217.7550 -217.6237
TCL: namdcph) Proposal rejected.
TCL: Running for 500 steps without repeating first step
TCL: namdcph) Proposal rejected.
TCL: Running for 500 steps without repeating first step
ETITLE: TS BOND ANGLE DIHED IMPRP ELECT VDW BOUNDARY MISC KINETIC TOTAL TEMP POTENTIAL TOTAL3 TEMPAVG PRESSURE GPRESSURE VOLUME PRESSAVG GPRESSAVG
ENERGY: 25000 156.2839 484.5350 463.4133 28.3741 -96556.0884 8456.1999 0.0000 0.0000 15385.7950 -71581.4873 297.2562 -86967.2822 -71543.9877 296.3679 -91.1112 -60.4815 254987.8783 -164.0915 -164.1752
TCL: namdcph) Proposal rejected.
TCL: Running for 500 steps without repeating first step
TCL: namdcph) Proposal rejected.
TCL: Running for 500 steps without repeating first step
ETITLE: TS BOND ANGLE DIHED IMPRP ELECT VDW BOUNDARY MISC KINETIC TOTAL TEMP POTENTIAL TOTAL3 TEMPAVG PRESSURE GPRESSURE VOLUME PRESSAVG GPRESSAVG
ENERGY: 26000 151.4614 479.6615 479.5298 30.9430 -96251.1428 8294.4082 0.0000 0.0000 15454.0623 -71361.0767 298.5752 -86815.1390 -71325.8463 298.3681 -125.7653 -91.3531 254987.8783 -173.8954 -173.9168
TCL: namdcph) Proposal rejected.
TCL: Running for 500 steps without repeating first step
TCL: namdcph) Proposal rejected.
TCL: Running for 500 steps without repeating first step
ETITLE: TS BOND ANGLE DIHED IMPRP ELECT VDW BOUNDARY MISC KINETIC TOTAL TEMP POTENTIAL TOTAL3 TEMPAVG PRESSURE GPRESSURE VOLUME PRESSAVG GPRESSAVG
ENERGY: 27000 163.0782 476.1266 484.4784 37.5608 -96702.3664 8363.5537 0.0000 0.0000 15605.8503 -71571.7183 301.5077 -87177.5687 -71534.8518 299.9865 -227.2562 -197.3497 254987.8783 -167.9099 -167.8588
TCL: namdcph) Proposal rejected.
TCL: Running for 500 steps without repeating first step
TCL: namdcph) Proposal rejected.
TCL: Running for 500 steps without repeating first step
ETITLE: TS BOND ANGLE DIHED IMPRP ELECT VDW BOUNDARY MISC KINETIC TOTAL TEMP POTENTIAL TOTAL3 TEMPAVG PRESSURE GPRESSURE VOLUME PRESSAVG GPRESSAVG
ENERGY: 28000 173.0296 486.0775 480.0688 36.0825 -96622.5021 8475.1068 0.0000 0.0000 15409.1040 -71563.0330 297.7066 -86972.1369 -71524.4720 298.2344 -30.9962 7.0515 254987.8783 -182.4708 -182.5144
TCL: namdcph) Proposal rejected.
TCL: Running for 500 steps without repeating first step
TCL: namdcph) Proposal rejected.
TCL: Running for 500 steps without repeating first step
ETITLE: TS BOND ANGLE DIHED IMPRP ELECT VDW BOUNDARY MISC KINETIC TOTAL TEMP POTENTIAL TOTAL3 TEMPAVG PRESSURE GPRESSURE VOLUME PRESSAVG GPRESSAVG
ENERGY: 29000 154.3301 473.9571 476.8005 39.2034 -96583.3685 8369.7116 0.0000 0.0000 15291.0975 -71778.2683 295.4267 -87069.3658 -71741.5368 298.0831 -122.8467 -83.9747 254987.8783 -235.9746 -235.7706
TCL: namdcph) Proposal rejected.
TCL: Running for 500 steps without repeating first step
TCL: namdcph) Proposal rejected.
TCL: Running for 500 steps without repeating first step
ETITLE: TS BOND ANGLE DIHED IMPRP ELECT VDW BOUNDARY MISC KINETIC TOTAL TEMP POTENTIAL TOTAL3 TEMPAVG PRESSURE GPRESSURE VOLUME PRESSAVG GPRESSAVG
ENERGY: 30000 157.1451 481.3461 473.6032 37.3176 -96782.3077 8450.8009 0.0000 0.0000 15400.7188 -71781.3761 297.5446 -87182.0948 -71741.7212 296.6837 -138.1454 -100.4496 254987.8783 -186.2055 -186.1825
TCL: namdcph) Proposal rejected.
TCL: Running for 500 steps without repeating first step
TCL: namdcph) Proposal rejected.
TCL: Running for 500 steps without repeating first step
ETITLE: TS BOND ANGLE DIHED IMPRP ELECT VDW BOUNDARY MISC KINETIC TOTAL TEMP POTENTIAL TOTAL3 TEMPAVG PRESSURE GPRESSURE VOLUME PRESSAVG GPRESSAVG
ENERGY: 31000 182.9549 506.7525 469.5447 34.6908 -97047.8995 8434.9834 0.0000 0.0000 15514.0075 -71904.9657 299.7333 -87418.9732 -71869.5631 296.7687 -338.6977 -308.7731 254987.8783 -176.3241 -176.2612
TCL: namdcph) Proposal rejected.
TCL: Running for 500 steps without repeating first step
TCL: namdcph) Proposal rejected.
TCL: Running for 500 steps without repeating first step
ETITLE: TS BOND ANGLE DIHED IMPRP ELECT VDW BOUNDARY MISC KINETIC TOTAL TEMP POTENTIAL TOTAL3 TEMPAVG PRESSURE GPRESSURE VOLUME PRESSAVG GPRESSAVG
ENERGY: 32000 140.7172 462.0174 480.6775 34.3492 -97107.4042 8700.2884 0.0000 0.0000 15604.7122 -71684.6424 301.4857 -87289.3546 -71642.1253 297.6492 93.0134 124.6085 254987.8783 -167.2729 -167.2189
TCL: namdcph) Proposal rejected.
TCL: Running for 500 steps without repeating first step
TCL: namdcph) Proposal rejected.
TCL: Running for 500 steps without repeating first step
ETITLE: TS BOND ANGLE DIHED IMPRP ELECT VDW BOUNDARY MISC KINETIC TOTAL TEMP POTENTIAL TOTAL3 TEMPAVG PRESSURE GPRESSURE VOLUME PRESSAVG GPRESSAVG
ENERGY: 33000 151.7238 523.0558 465.3838 36.2683 -96924.5577 8466.7029 0.0000 0.0000 15381.4076 -71900.0156 297.1715 -87281.4232 -71859.7512 296.9906 -195.6876 -161.9751 254987.8783 -189.9133 -189.9631
TCL: namdcph) Proposal rejected.
TCL: Running for 500 steps without repeating first step
TCL: namdcph) Proposal rejected.
TCL: Running for 500 steps without repeating first step
ETITLE: TS BOND ANGLE DIHED IMPRP ELECT VDW BOUNDARY MISC KINETIC TOTAL TEMP POTENTIAL TOTAL3 TEMPAVG PRESSURE GPRESSURE VOLUME PRESSAVG GPRESSAVG
ENERGY: 34000 161.1876 476.9282 456.8014 32.2220 -96750.8129 8430.4734 0.0000 0.0000 15333.0611 -71860.1394 296.2374 -87193.2005 -71820.6627 296.4266 -133.3593 -101.4497 254987.8783 -169.9316 -169.9551
TCL: namdcph) Proposal rejected.
TCL: Running for 500 steps without repeating first step
TCL: namdcph) Proposal rejected.
TCL: Running for 500 steps without repeating first step
ETITLE: TS BOND ANGLE DIHED IMPRP ELECT VDW BOUNDARY MISC KINETIC TOTAL TEMP POTENTIAL TOTAL3 TEMPAVG PRESSURE GPRESSURE VOLUME PRESSAVG GPRESSAVG
ENERGY: 35000 159.6905 502.2630 463.2298 31.9141 -96844.5536 8502.4499 0.0000 0.0000 15191.8049 -71993.2015 293.5083 -87185.0063 -71954.2393 297.0977 -36.7205 -12.9938 254987.8783 -235.3398 -235.2621
TCL: namdcph) Proposal rejected.
TCL: Running for 500 steps without repeating first step
TCL: namdcph) Proposal rejected.
TCL: Running for 500 steps without repeating first step
ETITLE: TS BOND ANGLE DIHED IMPRP ELECT VDW BOUNDARY MISC KINETIC TOTAL TEMP POTENTIAL TOTAL3 TEMPAVG PRESSURE GPRESSURE VOLUME PRESSAVG GPRESSAVG
ENERGY: 36000 148.7680 471.1351 479.6076 26.6696 -96483.6989 8177.9508 0.0000 0.0000 15271.2790 -71908.2888 295.0438 -87179.5678 -71869.0059 296.1914 -374.7051 -336.2902 254987.8783 -206.7060 -206.7172
TCL: namdcph) Proposal rejected.
TCL: Running for 500 steps without repeating first step
TCL: namdcph) Proposal rejected.
TCL: Running for 500 steps without repeating first step
ETITLE: TS BOND ANGLE DIHED IMPRP ELECT VDW BOUNDARY MISC KINETIC TOTAL TEMP POTENTIAL TOTAL3 TEMPAVG PRESSURE GPRESSURE VOLUME PRESSAVG GPRESSAVG
ENERGY: 37000 160.6952 501.7379 492.8867 36.9787 -96561.2596 8224.9589 0.0000 0.0000 15608.8750 -71535.1273 301.5662 -87144.0022 -71497.3324 297.2764 -328.1789 -287.6265 254987.8783 -210.6496 -210.5729
TCL: namdcph) Proposal rejected.
TCL: Running for 500 steps without repeating first step
TCL: namdcph) Proposal rejected.
TCL: Running for 500 steps without repeating first step
ETITLE: TS BOND ANGLE DIHED IMPRP ELECT VDW BOUNDARY MISC KINETIC TOTAL TEMP POTENTIAL TOTAL3 TEMPAVG PRESSURE GPRESSURE VOLUME PRESSAVG GPRESSAVG
ENERGY: 38000 153.9878 471.6423 475.1185 26.1665 -96588.0111 8412.1926 0.0000 0.0000 15459.6313 -71589.2721 298.6828 -87048.9034 -71551.7008 298.6960 -104.8786 -76.3011 254987.8783 -123.0658 -122.9348
TCL: namdcph) Proposal rejected.
TCL: Running for 500 steps without repeating first step
TCL: namdcph) Proposal rejected.
TCL: Running for 500 steps without repeating first step
Info: NONBONDED TABLE R-SQUARED SPACING: 0.0625
Info: NONBONDED TABLE SIZE: 769 POINTS
Info: READING EXTRA BONDS FILE 7/namdcph.sw.extrabonds
Info: READ 8 EXTRA BONDS
Info: To read alchdata from file: coordinate pdb file (default)
Info: To read alchflag data from column: 5
Info: LONG-RANGE LJ: APPLYING ANALYTICAL CORRECTIONS TO ENERGY AND PRESSURE
Info: LONG-RANGE LJ: AVERAGE A0 AND B0 COEFFICIENTS 70944.9 AND 74.5871
Info: LONG-RANGE LJ: AVERAGE A1 AND B1 COEFFICIENTS 70944.2 AND 74.5851
Info: STRUCTURE SUMMARY:
Info: 25819 ATOMS
Info: 17480 BONDS
Info: 9873 ANGLES
Info: 2285 DIHEDRALS
Info: 178 IMPROPERS
Info: 54 CROSSTERMS
Info: 0 EXCLUSIONS
Info: 25344 RIGID BONDS
Info: ALCH: 8 ATOMS TO DISAPPEAR IN FINAL STATE
Info: ALCH: 8 ATOMS TO APPEAR IN FINAL STATE
Info: ALCH: 6 DIHEDRALS LINKING INITIAL AND FINAL ATOMS DELETED
Info: 52113 DEGREES OF FREEDOM
Info: 8775 HYDROGEN GROUPS
Info: 4 ATOMS IN LARGEST HYDROGEN GROUP
Info: 8775 MIGRATION GROUPS
Info: 4 ATOMS IN LARGEST MIGRATION GROUP
Info: TOTAL MASS = 157026 amu
Info: TOTAL CHARGE = 4.20958e-07 e
Info: MASS DENSITY = 1.02261 g/cm^3
Info: ATOM DENSITY = 0.101256 atoms/A^3
Info: ADDED 29624 IMPLICIT EXCLUSIONS
Info: NONBONDED TABLE R-SQUARED SPACING: 0.0625
Info: NONBONDED TABLE SIZE: 769 POINTS
Info: REMOVING COM VELOCITY -0.0297083 0.00382933 -0.018034
Info: NONBONDED TABLE R-SQUARED SPACING: 0.0625
Info: NONBONDED TABLE SIZE: 769 POINTS
Info: READING EXTRA BONDS FILE 7/namdcph.sw.extrabonds
Info: LONG-RANGE LJ: APPLYING ANALYTICAL CORRECTIONS TO ENERGY AND PRESSURE
Info: LONG-RANGE LJ: AVERAGE A AND B COEFFICIENTS 70944.9 AND 74.5871
Info: STRUCTURE SUMMARY:
Info: 25811 ATOMS
Info: 17464 BONDS
Info: 9859 ANGLES
Info: 2262 DIHEDRALS
Info: 177 IMPROPERS
Info: 54 CROSSTERMS
Info: 0 EXCLUSIONS
Info: 25340 RIGID BONDS
Info: 52093 DEGREES OF FREEDOM
Info: 8771 HYDROGEN GROUPS
Info: 4 ATOMS IN LARGEST HYDROGEN GROUP
Info: 8771 MIGRATION GROUPS
Info: 4 ATOMS IN LARGEST MIGRATION GROUP
Info: TOTAL MASS = 156966 amu
Info: TOTAL CHARGE = 4.35859e-07 e
Info: MASS DENSITY = 1.02222 g/cm^3
Info: ATOM DENSITY = 0.101224 atoms/A^3
Info: ADDED 29579 IMPLICIT EXCLUSIONS
Info: NONBONDED TABLE R-SQUARED SPACING: 0.0625
Info: NONBONDED TABLE SIZE: 769 POINTS
Info: REMOVING COM VELOCITY -0.0284911 0.00418071 -0.0189058
Info: NONBONDED TABLE R-SQUARED SPACING: 0.0625
Info: NONBONDED TABLE SIZE: 769 POINTS
Info: READING EXTRA BONDS FILE 7/namdcph.sw.extrabonds
Info: READ 8 EXTRA BONDS
Info: To read alchdata from file: coordinate pdb file (default)
Info: To read alchflag data from column: 5
Info: LONG-RANGE LJ: APPLYING ANALYTICAL CORRECTIONS TO ENERGY AND PRESSURE
Info: LONG-RANGE LJ: AVERAGE A0 AND B0 COEFFICIENTS 70944.9 AND 74.5871
Info: LONG-RANGE LJ: AVERAGE A1 AND B1 COEFFICIENTS 70944.2 AND 74.5851
Info: STRUCTURE SUMMARY:
Info: 25819 ATOMS
Info: 17480 BONDS
Info: 9873 ANGLES
Info: 2284 DIHEDRALS
Info: 178 IMPROPERS
Info: 54 CROSSTERMS
Info: 0 EXCLUSIONS
Info: 25344 RIGID BONDS
Info: ALCH: 8 ATOMS TO DISAPPEAR IN FINAL STATE
Info: ALCH: 8 ATOMS TO APPEAR IN FINAL STATE
Info: ALCH: 6 DIHEDRALS LINKING INITIAL AND FINAL ATOMS DELETED
Info: 52113 DEGREES OF FREEDOM
Info: 8775 HYDROGEN GROUPS
Info: 4 ATOMS IN LARGEST HYDROGEN GROUP
Info: 8775 MIGRATION GROUPS
Info: 4 ATOMS IN LARGEST MIGRATION GROUP
Info: TOTAL MASS = 157026 amu
Info: TOTAL CHARGE = 4.20958e-07 e
Info: MASS DENSITY = 1.02261 g/cm^3
Info: ATOM DENSITY = 0.101256 atoms/A^3
Info: ADDED 29623 IMPLICIT EXCLUSIONS
Info: NONBONDED TABLE R-SQUARED SPACING: 0.0625
Info: NONBONDED TABLE SIZE: 769 POINTS
Info: REMOVING COM VELOCITY 0.0448162 -0.0302681 -0.055587
Info: NONBONDED TABLE R-SQUARED SPACING: 0.0625
Info: NONBONDED TABLE SIZE: 769 POINTS
Info: READING EXTRA BONDS FILE 7/namdcph.sw.extrabonds
Info: LONG-RANGE LJ: APPLYING ANALYTICAL CORRECTIONS TO ENERGY AND PRESSURE
Info: LONG-RANGE LJ: AVERAGE A AND B COEFFICIENTS 70944.9 AND 74.5871
Info: STRUCTURE SUMMARY:
Info: 25811 ATOMS
Info: 17464 BONDS
Info: 9859 ANGLES
Info: 2262 DIHEDRALS
Info: 177 IMPROPERS
Info: 54 CROSSTERMS
Info: 0 EXCLUSIONS
Info: 25340 RIGID BONDS
Info: 52093 DEGREES OF FREEDOM
Info: 8771 HYDROGEN GROUPS
Info: 4 ATOMS IN LARGEST HYDROGEN GROUP
Info: 8771 MIGRATION GROUPS
Info: 4 ATOMS IN LARGEST MIGRATION GROUP
Info: TOTAL MASS = 156966 amu
Info: TOTAL CHARGE = 4.35859e-07 e
Info: MASS DENSITY = 1.02222 g/cm^3
Info: ATOM DENSITY = 0.101224 atoms/A^3
Info: ADDED 29579 IMPLICIT EXCLUSIONS
Info: NONBONDED TABLE R-SQUARED SPACING: 0.0625
Info: NONBONDED TABLE SIZE: 769 POINTS
Info: REMOVING COM VELOCITY 0.0447115 -0.031414 -0.0551936
Info: NONBONDED TABLE R-SQUARED SPACING: 0.0625
Info: NONBONDED TABLE SIZE: 769 POINTS
Info: READING EXTRA BONDS FILE 7/namdcph.sw.extrabonds
Info: READ 8 EXTRA BONDS
Info: To read alchdata from file: coordinate pdb file (default)
Info: To read alchflag data from column: 5
Info: LONG-RANGE LJ: APPLYING ANALYTICAL CORRECTIONS TO ENERGY AND PRESSURE
Info: LONG-RANGE LJ: AVERAGE A0 AND B0 COEFFICIENTS 70944.9 AND 74.5871
Info: LONG-RANGE LJ: AVERAGE A1 AND B1 COEFFICIENTS 70944.2 AND 74.5851
Info: STRUCTURE SUMMARY:
Info: 25819 ATOMS
Info: 17480 BONDS
Info: 9873 ANGLES
Info: 2284 DIHEDRALS
Info: 178 IMPROPERS
Info: 54 CROSSTERMS
Info: 0 EXCLUSIONS
Info: 25344 RIGID BONDS
Info: ALCH: 8 ATOMS TO DISAPPEAR IN FINAL STATE
Info: ALCH: 8 ATOMS TO APPEAR IN FINAL STATE
Info: ALCH: 6 DIHEDRALS LINKING INITIAL AND FINAL ATOMS DELETED
Info: 52113 DEGREES OF FREEDOM
Info: 8775 HYDROGEN GROUPS
Info: 4 ATOMS IN LARGEST HYDROGEN GROUP
Info: 8775 MIGRATION GROUPS
Info: 4 ATOMS IN LARGEST MIGRATION GROUP
Info: TOTAL MASS = 157026 amu
Info: TOTAL CHARGE = 4.20958e-07 e
Info: MASS DENSITY = 1.02261 g/cm^3
Info: ATOM DENSITY = 0.101256 atoms/A^3
Info: ADDED 29623 IMPLICIT EXCLUSIONS
Info: NONBONDED TABLE R-SQUARED SPACING: 0.0625
Info: NONBONDED TABLE SIZE: 769 POINTS
Info: REMOVING COM VELOCITY 0.0325244 -0.0663407 -0.00209002
Info: NONBONDED TABLE R-SQUARED SPACING: 0.0625
Info: NONBONDED TABLE SIZE: 769 POINTS
Info: READING EXTRA BONDS FILE 7/namdcph.sw.extrabonds
Info: LONG-RANGE LJ: APPLYING ANALYTICAL CORRECTIONS TO ENERGY AND PRESSURE
Info: LONG-RANGE LJ: AVERAGE A AND B COEFFICIENTS 70944.9 AND 74.5871
Info: STRUCTURE SUMMARY:
Info: 25811 ATOMS
Info: 17464 BONDS
Info: 9859 ANGLES
Info: 2262 DIHEDRALS
Info: 177 IMPROPERS
Info: 54 CROSSTERMS
Info: 0 EXCLUSIONS
Info: 25340 RIGID BONDS
Info: 52093 DEGREES OF FREEDOM
Info: 8771 HYDROGEN GROUPS
Info: 4 ATOMS IN LARGEST HYDROGEN GROUP
Info: 8771 MIGRATION GROUPS
Info: 4 ATOMS IN LARGEST MIGRATION GROUP
Info: TOTAL MASS = 156966 amu
Info: TOTAL CHARGE = 4.35859e-07 e
Info: MASS DENSITY = 1.02222 g/cm^3
Info: ATOM DENSITY = 0.101224 atoms/A^3
Info: ADDED 29579 IMPLICIT EXCLUSIONS
Info: NONBONDED TABLE R-SQUARED SPACING: 0.0625
Info: NONBONDED TABLE SIZE: 769 POINTS
Info: REMOVING COM VELOCITY 0.0326025 -0.0653966 -0.00332551
Info: NONBONDED TABLE R-SQUARED SPACING: 0.0625
Info: NONBONDED TABLE SIZE: 769 POINTS
Info: READING EXTRA BONDS FILE 7/namdcph.sw.extrabonds
Info: READ 8 EXTRA BONDS
Info: To read alchdata from file: coordinate pdb file (default)
Info: To read alchflag data from column: 5
Info: LONG-RANGE LJ: APPLYING ANALYTICAL CORRECTIONS TO ENERGY AND PRESSURE
Info: LONG-RANGE LJ: AVERAGE A0 AND B0 COEFFICIENTS 70944.9 AND 74.5871
Info: LONG-RANGE LJ: AVERAGE A1 AND B1 COEFFICIENTS 70944.2 AND 74.5851
Info: STRUCTURE SUMMARY:
Info: 25819 ATOMS
Info: 17480 BONDS
Info: 9873 ANGLES
Info: 2284 DIHEDRALS
Info: 178 IMPROPERS
Info: 54 CROSSTERMS
Info: 0 EXCLUSIONS
Info: 25344 RIGID BONDS
Info: ALCH: 8 ATOMS TO DISAPPEAR IN FINAL STATE
Info: ALCH: 8 ATOMS TO APPEAR IN FINAL STATE
Info: ALCH: 6 DIHEDRALS LINKING INITIAL AND FINAL ATOMS DELETED
Info: 52113 DEGREES OF FREEDOM
Info: 8775 HYDROGEN GROUPS
Info: 4 ATOMS IN LARGEST HYDROGEN GROUP
Info: 8775 MIGRATION GROUPS
Info: 4 ATOMS IN LARGEST MIGRATION GROUP
Info: TOTAL MASS = 157026 amu
Info: TOTAL CHARGE = 4.20958e-07 e
Info: MASS DENSITY = 1.02261 g/cm^3
Info: ATOM DENSITY = 0.101256 atoms/A^3
Info: ADDED 29623 IMPLICIT EXCLUSIONS
Info: NONBONDED TABLE R-SQUARED SPACING: 0.0625
Info: NONBONDED TABLE SIZE: 769 POINTS
Info: REMOVING COM VELOCITY -0.0406091 -0.0561292 0.0293875
Info: NONBONDED TABLE R-SQUARED SPACING: 0.0625
Info: NONBONDED TABLE SIZE: 769 POINTS
Info: READING EXTRA BONDS FILE 7/namdcph.sw.extrabonds
Info: LONG-RANGE LJ: APPLYING ANALYTICAL CORRECTIONS TO ENERGY AND PRESSURE
Info: LONG-RANGE LJ: AVERAGE A AND B COEFFICIENTS 70944.2 AND 74.5851
Info: STRUCTURE SUMMARY:
Info: 25811 ATOMS
Info: 17464 BONDS
Info: 9859 ANGLES
Info: 2262 DIHEDRALS
Info: 177 IMPROPERS
Info: 54 CROSSTERMS
Info: 0 EXCLUSIONS
Info: 25340 RIGID BONDS
Info: 52093 DEGREES OF FREEDOM
Info: 8771 HYDROGEN GROUPS
Info: 4 ATOMS IN LARGEST HYDROGEN GROUP
Info: 8771 MIGRATION GROUPS
Info: 4 ATOMS IN LARGEST MIGRATION GROUP
Info: TOTAL MASS = 156966 amu
Info: TOTAL CHARGE = 1 e
Info: MASS DENSITY = 1.02222 g/cm^3
Info: ATOM DENSITY = 0.101224 atoms/A^3
Info: ADDED 29579 IMPLICIT EXCLUSIONS
Info: NONBONDED TABLE R-SQUARED SPACING: 0.0625
Info: NONBONDED TABLE SIZE: 769 POINTS
Info: REMOVING COM VELOCITY -0.0320025 0.0109878 0.00172727
Info: NONBONDED TABLE R-SQUARED SPACING: 0.0625
Info: NONBONDED TABLE SIZE: 769 POINTS
Info: READING EXTRA BONDS FILE 7/namdcph.sw.extrabonds
Info: READ 8 EXTRA BONDS
Info: To read alchdata from file: coordinate pdb file (default)
Info: To read alchflag data from column: 5
Info: LONG-RANGE LJ: APPLYING ANALYTICAL CORRECTIONS TO ENERGY AND PRESSURE
Info: LONG-RANGE LJ: AVERAGE A0 AND B0 COEFFICIENTS 70944.2 AND 74.5851
Info: LONG-RANGE LJ: AVERAGE A1 AND B1 COEFFICIENTS 70944.9 AND 74.5871
Info: STRUCTURE SUMMARY:
Info: 25819 ATOMS
Info: 17480 BONDS
Info: 9873 ANGLES
Info: 2284 DIHEDRALS
Info: 178 IMPROPERS
Info: 54 CROSSTERMS
Info: 0 EXCLUSIONS
Info: 25344 RIGID BONDS
Info: ALCH: 8 ATOMS TO DISAPPEAR IN FINAL STATE
Info: ALCH: 8 ATOMS TO APPEAR IN FINAL STATE
Info: ALCH: 6 DIHEDRALS LINKING INITIAL AND FINAL ATOMS DELETED
Info: 52113 DEGREES OF FREEDOM
Info: 8775 HYDROGEN GROUPS
Info: 4 ATOMS IN LARGEST HYDROGEN GROUP
Info: 8775 MIGRATION GROUPS
Info: 4 ATOMS IN LARGEST MIGRATION GROUP
Info: TOTAL MASS = 157026 amu
Info: TOTAL CHARGE = 4.20958e-07 e
Info: MASS DENSITY = 1.02261 g/cm^3
Info: ATOM DENSITY = 0.101256 atoms/A^3
Info: ADDED 29623 IMPLICIT EXCLUSIONS
Info: NONBONDED TABLE R-SQUARED SPACING: 0.0625
Info: NONBONDED TABLE SIZE: 769 POINTS
Info: REMOVING COM VELOCITY -0.0647724 0.0211974 0.0376509
Info: NONBONDED TABLE R-SQUARED SPACING: 0.0625
Info: NONBONDED TABLE SIZE: 769 POINTS
Info: READING EXTRA BONDS FILE 7/namdcph.sw.extrabonds
Info: LONG-RANGE LJ: APPLYING ANALYTICAL CORRECTIONS TO ENERGY AND PRESSURE
Info: LONG-RANGE LJ: AVERAGE A AND B COEFFICIENTS 70944.9 AND 74.5871
Info: STRUCTURE SUMMARY:
Info: 25811 ATOMS
Info: 17464 BONDS
Info: 9859 ANGLES
Info: 2262 DIHEDRALS
Info: 177 IMPROPERS
Info: 54 CROSSTERMS
Info: 0 EXCLUSIONS
Info: 25340 RIGID BONDS
Info: 52093 DEGREES OF FREEDOM
Info: 8771 HYDROGEN GROUPS
Info: 4 ATOMS IN LARGEST HYDROGEN GROUP
Info: 8771 MIGRATION GROUPS
Info: 4 ATOMS IN LARGEST MIGRATION GROUP
Info: TOTAL MASS = 156966 amu
Info: TOTAL CHARGE = 4.35859e-07 e
Info: MASS DENSITY = 1.02222 g/cm^3
Info: ATOM DENSITY = 0.101224 atoms/A^3
Info: ADDED 29579 IMPLICIT EXCLUSIONS
Info: NONBONDED TABLE R-SQUARED SPACING: 0.0625
Info: NONBONDED TABLE SIZE: 769 POINTS
Info: REMOVING COM VELOCITY -0.0563679 -0.00384101 -0.0806055
Info: NONBONDED TABLE R-SQUARED SPACING: 0.0625
Info: NONBONDED TABLE SIZE: 769 POINTS
Info: READING EXTRA BONDS FILE 7/namdcph.sw.extrabonds
Info: READ 7 EXTRA BONDS
Info: To read alchdata from file: coordinate pdb file (default)
Info: To read alchflag data from column: 5
Info: LONG-RANGE LJ: APPLYING ANALYTICAL CORRECTIONS TO ENERGY AND PRESSURE
Info: LONG-RANGE LJ: AVERAGE A0 AND B0 COEFFICIENTS 70944.9 AND 74.5871
Info: LONG-RANGE LJ: AVERAGE A1 AND B1 COEFFICIENTS 70950.4 AND 74.5926
Info: STRUCTURE SUMMARY:
Info: 25818 ATOMS
Info: 17478 BONDS
Info: 9873 ANGLES
Info: 2283 DIHEDRALS
Info: 178 IMPROPERS
Info: 54 CROSSTERMS
Info: 0 EXCLUSIONS
Info: 25345 RIGID BONDS
Info: ALCH: 7 ATOMS TO DISAPPEAR IN FINAL STATE
Info: ALCH: 7 ATOMS TO APPEAR IN FINAL STATE
Info: ALCH: 1 ANGLES LINKING INITIAL AND FINAL ATOMS DELETED
Info: ALCH: 6 DIHEDRALS LINKING INITIAL AND FINAL ATOMS DELETED
Info: 52109 DEGREES OF FREEDOM
Info: 8773 HYDROGEN GROUPS
Info: 4 ATOMS IN LARGEST HYDROGEN GROUP
Info: 8773 MIGRATION GROUPS
Info: 4 ATOMS IN LARGEST MIGRATION GROUP
Info: TOTAL MASS = 156997 amu
Info: TOTAL CHARGE = 4.65661e-07 e
Info: MASS DENSITY = 1.02242 g/cm^3
Info: ATOM DENSITY = 0.101252 atoms/A^3
Info: ADDED 29622 IMPLICIT EXCLUSIONS
Info: NONBONDED TABLE R-SQUARED SPACING: 0.0625
Info: NONBONDED TABLE SIZE: 769 POINTS
Info: REMOVING COM VELOCITY -0.00228129 -0.00882795 0.0119962
Info: NONBONDED TABLE R-SQUARED SPACING: 0.0625
Info: NONBONDED TABLE SIZE: 769 POINTS
Info: READING EXTRA BONDS FILE 7/namdcph.sw.extrabonds
Info: LONG-RANGE LJ: APPLYING ANALYTICAL CORRECTIONS TO ENERGY AND PRESSURE
Info: LONG-RANGE LJ: AVERAGE A AND B COEFFICIENTS 70944.9 AND 74.5871
Info: STRUCTURE SUMMARY:
Info: 25811 ATOMS
Info: 17464 BONDS
Info: 9859 ANGLES
Info: 2262 DIHEDRALS
Info: 177 IMPROPERS
Info: 54 CROSSTERMS
Info: 0 EXCLUSIONS
Info: 25340 RIGID BONDS
Info: 52093 DEGREES OF FREEDOM
Info: 8771 HYDROGEN GROUPS
Info: 4 ATOMS IN LARGEST HYDROGEN GROUP
Info: 8771 MIGRATION GROUPS
Info: 4 ATOMS IN LARGEST MIGRATION GROUP
Info: TOTAL MASS = 156966 amu
Info: TOTAL CHARGE = 4.35859e-07 e
Info: MASS DENSITY = 1.02222 g/cm^3
Info: ATOM DENSITY = 0.101224 atoms/A^3
Info: ADDED 29579 IMPLICIT EXCLUSIONS
Info: NONBONDED TABLE R-SQUARED SPACING: 0.0625
Info: NONBONDED TABLE SIZE: 769 POINTS
Info: REMOVING COM VELOCITY -0.00274994 -0.00833543 0.0119431
Info: NONBONDED TABLE R-SQUARED SPACING: 0.0625
Info: NONBONDED TABLE SIZE: 769 POINTS
Info: READING EXTRA BONDS FILE 7/namdcph.sw.extrabonds
Info: READ 8 EXTRA BONDS
Info: To read alchdata from file: coordinate pdb file (default)
Info: To read alchflag data from column: 5
Info: LONG-RANGE LJ: APPLYING ANALYTICAL CORRECTIONS TO ENERGY AND PRESSURE
Info: LONG-RANGE LJ: AVERAGE A0 AND B0 COEFFICIENTS 70944.9 AND 74.5871
Info: LONG-RANGE LJ: AVERAGE A1 AND B1 COEFFICIENTS 70944.2 AND 74.5851
Info: STRUCTURE SUMMARY:
Info: 25819 ATOMS
Info: 17480 BONDS
Info: 9873 ANGLES
Info: 2284 DIHEDRALS
Info: 178 IMPROPERS
Info: 54 CROSSTERMS
Info: 0 EXCLUSIONS
Info: 25344 RIGID BONDS
Info: ALCH: 8 ATOMS TO DISAPPEAR IN FINAL STATE
Info: ALCH: 8 ATOMS TO APPEAR IN FINAL STATE
Info: ALCH: 6 DIHEDRALS LINKING INITIAL AND FINAL ATOMS DELETED
Info: 52113 DEGREES OF FREEDOM
Info: 8775 HYDROGEN GROUPS
Info: 4 ATOMS IN LARGEST HYDROGEN GROUP
Info: 8775 MIGRATION GROUPS
Info: 4 ATOMS IN LARGEST MIGRATION GROUP
Info: TOTAL MASS = 157026 amu
Info: TOTAL CHARGE = 4.20958e-07 e
Info: MASS DENSITY = 1.02261 g/cm^3
Info: ATOM DENSITY = 0.101256 atoms/A^3
Info: ADDED 29623 IMPLICIT EXCLUSIONS
Info: NONBONDED TABLE R-SQUARED SPACING: 0.0625
Info: NONBONDED TABLE SIZE: 769 POINTS
Info: REMOVING COM VELOCITY -0.0624369 0.0393952 0.0106534
Info: NONBONDED TABLE R-SQUARED SPACING: 0.0625
Info: NONBONDED TABLE SIZE: 769 POINTS
Info: READING EXTRA BONDS FILE 7/namdcph.sw.extrabonds
Info: LONG-RANGE LJ: APPLYING ANALYTICAL CORRECTIONS TO ENERGY AND PRESSURE
Info: LONG-RANGE LJ: AVERAGE A AND B COEFFICIENTS 70944.9 AND 74.5871
Info: STRUCTURE SUMMARY:
Info: 25811 ATOMS
Info: 17464 BONDS
Info: 9859 ANGLES
Info: 2262 DIHEDRALS
Info: 177 IMPROPERS
Info: 54 CROSSTERMS
Info: 0 EXCLUSIONS
Info: 25340 RIGID BONDS
Info: 52093 DEGREES OF FREEDOM
Info: 8771 HYDROGEN GROUPS
Info: 4 ATOMS IN LARGEST HYDROGEN GROUP
Info: 8771 MIGRATION GROUPS
Info: 4 ATOMS IN LARGEST MIGRATION GROUP
Info: TOTAL MASS = 156966 amu
Info: TOTAL CHARGE = 4.35859e-07 e
Info: MASS DENSITY = 1.02222 g/cm^3
Info: ATOM DENSITY = 0.101224 atoms/A^3
Info: ADDED 29579 IMPLICIT EXCLUSIONS
Info: NONBONDED TABLE R-SQUARED SPACING: 0.0625
Info: NONBONDED TABLE SIZE: 769 POINTS
Info: REMOVING COM VELOCITY -0.0617764 0.0394831 0.0102504
Info: NONBONDED TABLE R-SQUARED SPACING: 0.0625
Info: NONBONDED TABLE SIZE: 769 POINTS
Info: READING EXTRA BONDS FILE 7/namdcph.sw.extrabonds
Info: READ 8 EXTRA BONDS
Info: To read alchdata from file: coordinate pdb file (default)
Info: To read alchflag data from column: 5
Info: LONG-RANGE LJ: APPLYING ANALYTICAL CORRECTIONS TO ENERGY AND PRESSURE
Info: LONG-RANGE LJ: AVERAGE A0 AND B0 COEFFICIENTS 70944.9 AND 74.5871
Info: LONG-RANGE LJ: AVERAGE A1 AND B1 COEFFICIENTS 70944.2 AND 74.5851
Info: STRUCTURE SUMMARY:
Info: 25819 ATOMS
Info: 17480 BONDS
Info: 9873 ANGLES
Info: 2285 DIHEDRALS
Info: 178 IMPROPERS
Info: 54 CROSSTERMS
Info: 0 EXCLUSIONS
Info: 25344 RIGID BONDS
Info: ALCH: 8 ATOMS TO DISAPPEAR IN FINAL STATE
Info: ALCH: 8 ATOMS TO APPEAR IN FINAL STATE
Info: ALCH: 6 DIHEDRALS LINKING INITIAL AND FINAL ATOMS DELETED
Info: 52113 DEGREES OF FREEDOM
Info: 8775 HYDROGEN GROUPS
Info: 4 ATOMS IN LARGEST HYDROGEN GROUP
Info: 8775 MIGRATION GROUPS
Info: 4 ATOMS IN LARGEST MIGRATION GROUP
Info: TOTAL MASS = 157026 amu
Info: TOTAL CHARGE = 4.20958e-07 e
Info: MASS DENSITY = 1.02261 g/cm^3
Info: ATOM DENSITY = 0.101256 atoms/A^3
Info: ADDED 29624 IMPLICIT EXCLUSIONS
Info: NONBONDED TABLE R-SQUARED SPACING: 0.0625
Info: NONBONDED TABLE SIZE: 769 POINTS
Info: REMOVING COM VELOCITY -0.0213856 0.00312998 0.00431694
Info: NONBONDED TABLE R-SQUARED SPACING: 0.0625
Info: NONBONDED TABLE SIZE: 769 POINTS
Info: READING EXTRA BONDS FILE 7/namdcph.sw.extrabonds
Info: LONG-RANGE LJ: APPLYING ANALYTICAL CORRECTIONS TO ENERGY AND PRESSURE
Info: LONG-RANGE LJ: AVERAGE A AND B COEFFICIENTS 70944.9 AND 74.5871
Info: STRUCTURE SUMMARY:
Info: 25811 ATOMS
Info: 17464 BONDS
Info: 9859 ANGLES
Info: 2262 DIHEDRALS
Info: 177 IMPROPERS
Info: 54 CROSSTERMS
Info: 0 EXCLUSIONS
Info: 25340 RIGID BONDS
Info: 52093 DEGREES OF FREEDOM
Info: 8771 HYDROGEN GROUPS
Info: 4 ATOMS IN LARGEST HYDROGEN GROUP
Info: 8771 MIGRATION GROUPS
Info: 4 ATOMS IN LARGEST MIGRATION GROUP
Info: TOTAL MASS = 156966 amu
Info: TOTAL CHARGE = 4.35859e-07 e
Info: MASS DENSITY = 1.02222 g/cm^3
Info: ATOM DENSITY = 0.101224 atoms/A^3
Info: ADDED 29579 IMPLICIT EXCLUSIONS
Info: NONBONDED TABLE R-SQUARED SPACING: 0.0625
Info: NONBONDED TABLE SIZE: 769 POINTS
Info: REMOVING COM VELOCITY -0.0224914 0.00233347 0.00458691
