Info: SIMULATION PARAMETERS:
Info: TIMESTEP               2
Info: NUMBER OF STEPS        0
Info: STEPS PER CYCLE        20
Info: PERIODIC CELL BASIS 1  44.2525 0 0
Info: PERIODIC CELL BASIS 2  0 55.5696 0
Info: PERIODIC CELL BASIS 3  0 0 104.296
Info: PERIODIC CELL CENTER   0.203575 0.535242 2.84572
Info: WRAPPING WATERS AROUND PERIODIC BOUNDARIES ON OUTPUT.
Info: WRAPPING ALL CLUSTERS AROUND PERIODIC BOUNDARIES ON OUTPUT.
Info: FIRST LDB TIMESTEP     100
Info: LAST LDB TIMESTEP     -1
Info: HOM BACKGROUND SCALING 1
Info: PME BACKGROUND SCALING 1
Info: MIN ATOMS PER PATCH    40
Info: INITIAL TEMPERATURE    298
Info: CENTER OF MASS MOVING INITIALLY? NO
Info: DIELECTRIC             1
Info: EXCLUDE                SCALED ONE-FOUR
Info: 1-4 ELECTROSTATICS SCALED BY 1
Info: MODIFIED 1-4 VDW PARAMETERS WILL BE USED
Info: DCD FILENAME           4/Pre4_0.dcd
Info: DCD FREQUENCY          1000
Info: DCD FIRST STEP         1000
Info: DCD FILE WILL CONTAIN UNIT CELL DATA
Info: NO EXTENDED SYSTEM TRAJECTORY OUTPUT
Info: NO VELOCITY DCD OUTPUT
Info: NO FORCE DCD OUTPUT
Info: OUTPUT FILENAME        4/Pre4_0
Info: BINARY OUTPUT FILES WILL BE USED
Info: NO RESTART FILE
Info: SWITCHING ACTIVE
Info: VDW FORCE SWITCHING ACTIVE
Info: SWITCHING ON           10
Info: SWITCHING OFF          12
Info: PAIRLIST DISTANCE      14
Info: PAIRLIST SHRINK RATE   0.01
Info: PAIRLIST GROW RATE     0.01
Info: PAIRLIST TRIGGER       0.3
Info: PAIRLISTS PER CYCLE    2
Info: PAIRLISTS ENABLED
Info: MARGIN                 2
Info: HYDROGEN GROUP CUTOFF  2.5
Info: PATCH DIMENSION        18.5
Info: ENERGY OUTPUT STEPS    1000
Info: CROSSTERM ENERGY INCLUDED IN DIHEDRAL
Info: TIMING OUTPUT STEPS    10000
Info: THERMODYNAMIC INTEGRATION (TI) ON
Info: TI LAMBDA VALUE     0
Info: TI INTRA-ALCHEMICAL NON-BONDED INTERACTIONS WILL BE DECOUPLED
Info: TI INTRA-ALCHEMICAL BONDED INTERACTIONS WILL BE DECOUPLED
Info: TI VDW SHIFTING COEFFICIENT 0
Info: TI ELEC. ACTIVE FOR ANNIHILATED PARTICLES BETWEEN LAMBDA = 0 AND LAMBDA = 1
Info: TI ELEC. ACTIVE FOR EXNIHILATED PARTICLES BETWEEN LAMBDA = 0 AND LAMBDA = 1
Info: TI VDW ACTIVE FOR ANNIHILATED PARTICLES BETWEEN LAMBDA = 0 AND LAMBDA = 1
Info: TI VDW ACTIVE FOR EXNIHILATED PARTICLES BETWEEN LAMBDA = 0 AND LAMBDA = 1
Info: TI BOND ACTIVE FOR ANNIHILATED PARTICLES BETWEEN LAMBDA = 0 AND LAMBDA = 1
Info: TI BOND ACTIVE FOR EXNIHILATED PARTICLES BETWEEN LAMBDA = 0 AND LAMBDA = 1
Info: LANGEVIN DYNAMICS ACTIVE
Info: LANGEVIN TEMPERATURE   298
Info: LANGEVIN USING BBK INTEGRATOR
Info: LANGEVIN DAMPING COEFFICIENT IS 1 INVERSE PS
Info: LANGEVIN DYNAMICS NOT APPLIED TO HYDROGENS
Info: PARTICLE MESH EWALD (PME) ACTIVE
Info: PME TOLERANCE               1e-06
Info: PME EWALD COEFFICIENT       0.257952
Info: PME INTERPOLATION ORDER     4
Info: PME GRID DIMENSIONS         48 56 108
Info: PME MAXIMUM GRID SPACING    1
Info: FULL ELECTROSTATIC EVALUATION FREQUENCY      2
Info: USING VERLET I (r-RESPA) MTS SCHEME.
Info: C1 SPLITTING OF LONG RANGE ELECTROSTATICS
Info: PLACING ATOMS IN PATCHES BY HYDROGEN GROUPS
Info: RIGID BONDS TO HYDROGEN : ALL
Info:         ERROR TOLERANCE : 1e-08
Info:          MAX ITERATIONS : 100
Info: RIGID WATER USING SETTLE ALGORITHM
Info: RANDOM NUMBER SEED     1689349388
Info: USE HYDROGEN BONDS?    NO
Info: COORDINATE PDB         ../topology/preD936H.pdb
Info: STRUCTURE FILE         ../topology/preD936H.psf
Info: PARAMETER file: CHARMM format!
Info: PARAMETERS             ../../toppar/par_all36_carb.prm
Info: PARAMETERS             ../../toppar/par_all36_cgenff.prm
Info: PARAMETERS             ../../toppar/par_all36_lipid.prm
Info: PARAMETERS             ../../toppar/par_all36_na.prm
Info: PARAMETERS             ../../toppar/par_all36_prot.prm
Info: PARAMETERS             ../../toppar/par_all36_solvent.prm
Info: PARAMETERS             ../../toppar/par_cph36_prot.prm
Info: PARAMETERS             ../../toppar/toppar_all36_carb_glycopeptide.str
Info: PARAMETERS             ../../toppar/toppar_water_ions_namd.str
Info: USING ARITHMETIC MEAN TO COMBINE L-J SIGMA PARAMETERS
Info: SKIPPING rtf SECTION IN STREAM FILE
Info: SKIPPING rtf SECTION IN STREAM FILE
Info: SUMMARY OF PARAMETERS:
Info: 925 BONDS
Info: 2696 ANGLES
Info: 6608 DIHEDRAL
Info: 195 IMPROPER
Info: 6 CROSSTERM
Info: 366 VDW
Info: 6 VDW_PAIRS
Info: 0 NBTHOLE_PAIRS
Info: READING EXTRA BONDS FILE 4/namdcph.sw.extrabonds
Info: To read alchdata from file: coordinate pdb file (default)
Info: To read alchflag data from column: 5
Info: LONG-RANGE LJ: APPLYING ANALYTICAL CORRECTIONS TO ENERGY AND PRESSURE
Info: LONG-RANGE LJ: AVERAGE A0 AND B0 COEFFICIENTS 70982 AND 74.603
Info: LONG-RANGE LJ: AVERAGE A1 AND B1 COEFFICIENTS 70982 AND 74.603
Info: STRUCTURE SUMMARY:
Info: 25959 ATOMS
Info: 17562 BONDS
Info: 9911 ANGLES
Info: 2266 DIHEDRALS
Info: 179 IMPROPERS
Info: 54 CROSSTERMS
Info: 0 EXCLUSIONS
Info: 25484 RIGID BONDS
Info: ALCH: 0 ATOMS TO DISAPPEAR IN FINAL STATE
Info: ALCH: 0 ATOMS TO APPEAR IN FINAL STATE
Info: 52393 DEGREES OF FREEDOM
Info: 8824 HYDROGEN GROUPS
Info: 4 ATOMS IN LARGEST HYDROGEN GROUP
Info: 8824 MIGRATION GROUPS
Info: 4 ATOMS IN LARGEST MIGRATION GROUP
Info: TOTAL MASS = 157926 amu
Info: TOTAL CHARGE = 4.24683e-07 e
Info: MASS DENSITY = 1.02252 g/cm^3
Info: ATOM DENSITY = 0.101215 atoms/A^3
Info: ADDED 29728 IMPLICIT EXCLUSIONS
Info: NONBONDED TABLE R-SQUARED SPACING: 0.0625
Info: NONBONDED TABLE SIZE: 769 POINTS
Info: REMOVING COM VELOCITY -0.0434375 -0.000933928 0.0393902
TCL: Setting parameter alchLambdaFreq to 1
Info: NONBONDED TABLE R-SQUARED SPACING: 0.0625
Info: NONBONDED TABLE SIZE: 769 POINTS
TCL: Setting parameter alch to off
Info: NONBONDED TABLE R-SQUARED SPACING: 0.0625
Info: NONBONDED TABLE SIZE: 769 POINTS
TCL: namdcph) initializing constant pH PSF...
TCL: aliasing PP1:936:HSD to HIS
TCL: WARNING! Building new atom PP1:918:HE1 with unknown mass.
TCL:          This may cause issues, for example, with mass repartitioning.
TCL: WARNING! Building new atom PP1:918:HE2 with unknown mass.
TCL:          This may cause issues, for example, with mass repartitioning.
TCL: WARNING! Building new atom PP1:936:HE2 with unknown mass.
TCL:          This may cause issues, for example, with mass repartitioning.
TCL: WARNING! Building new atom PP1:950:HD1 with unknown mass.
TCL:          This may cause issues, for example, with mass repartitioning.
TCL: WARNING! Building new atom PP1:950:HD2 with unknown mass.
TCL:          This may cause issues, for example, with mass repartitioning.
TCL: cphpsfgen) creating new alchemical side chain for PP1:918:GLU
TCL: cphpsfgen) merging alchemical sidechains for PP1:918:GLU
TCL: cphpsfgen) creating new alchemical side chain for PP1:921:LYS
TCL: cphpsfgen) merging alchemical sidechains for PP1:921:LYS
TCL: cphpsfgen) creating new alchemical side chain for PP1:933:LYS
TCL: cphpsfgen) merging alchemical sidechains for PP1:933:LYS
TCL: cphpsfgen) creating new alchemical side chain for PP1:936:HIS
TCL: cphpsfgen) merging alchemical sidechains for PP1:936:HIS
TCL: cphpsfgen) creating new alchemical side chain for PP1:947:LYS
TCL: cphpsfgen) merging alchemical sidechains for PP1:947:LYS
TCL: cphpsfgen) creating new alchemical side chain for PP1:950:ASP
TCL: cphpsfgen) merging alchemical sidechains for PP1:950:ASP
TCL: cphpsfgen) creating new alchemical side chain for PP1:964:LYS
TCL: cphpsfgen) merging alchemical sidechains for PP1:964:LYS
TCL: namdcph) ***************************************
TCL: namdcph) CONSTANT pH MD ACTIVE
TCL: namdcph) SYSTEM pH 4
TCL: namdcph) CONSTANT pH CONFIGURATION FILE(S)
TCL: namdcph) ../../toppar/conf_cph36_prot.json
TCL: namdcph) NONEQUILIBRIUM SWITCH PARAMETERS:
TCL: namdcph) ALCHEMICAL FORCE CONSTANT 100.0 kcal/mol-A^2
TCL: namdcph) neMD/MC CRITERION TEMPERATURE 298.0
TCL: namdcph) TEMPORARY FILE INFORMATION:
TCL: namdcph) cpH TOPOLOGY FILE BASENAME 4/namdcph.md
TCL: namdcph) neMD/MC TRAJECTORY BASENAME 4/namdcph.sw
TCL: namdcph) ***************************************
TCL: namdcph) ***************************************
TCL: namdcph) TITRATABLE RESIDUE DEFINITIONS:
TCL: namdcph) HIS ASP GLU CYS LYS
TCL: namdcph) TITRATABLE SYSTEM SUMMARY:
TCL: namdcph) 7 RESIDUE(S)
TCL: namdcph) 18 PROTONATION SITE(S)
TCL: namdcph) ***************************************
TCL: namdcph) segid:resid:resname : state : pKai
TCL: namdcph) PP1:918:GLU         :     2 : 5.90
TCL: namdcph) PP1:921:LYS         :     P : 9.77
TCL: namdcph) PP1:933:LYS         :     P : 9.53
TCL: namdcph) PP1:936:HIS         :     P : 6.5 7.0
TCL: namdcph) PP1:947:LYS         :     P : 9.82
TCL: namdcph) PP1:950:ASP         :     1 : 5.50
TCL: namdcph) PP1:964:LYS         :     P : 9.68
TCL: namdcph) ***************************************
TCL: namdcph) *************************************************
TCL: namdcph) CONSTANT pH neMD/MC MOVES:
TCL: namdcph) MAX. ATTEMPTS PER CYCLE: 1
TCL: namdcph) ONE RESIDUE MOVES
TCL: namdcph) move label     : numsteps   weight
TCL: namdcph) PP1:918:GLU    :    75000     1.00
TCL: namdcph) PP1:921:LYS    :    75000     1.00
TCL: namdcph) PP1:933:LYS    :    75000     1.00
TCL: namdcph) PP1:936:HIS    :    75000     1.00
TCL: namdcph) PP1:947:LYS    :    75000     1.00
TCL: namdcph) PP1:950:ASP    :    75000     1.00
TCL: namdcph) PP1:964:LYS    :    75000     1.00
TCL: namdcph) *************************************************
TCL: namdcph) clearing extraBondsFile 4/namdcph.sw.extrabonds
TCL: Reloading molecular structure from file 4/namdcph.md.psf and pdb file 4/namdcph.md.pdb
Info: READING EXTRA BONDS FILE 4/namdcph.sw.extrabonds
Info: LONG-RANGE LJ: APPLYING ANALYTICAL CORRECTIONS TO ENERGY AND PRESSURE
Info: LONG-RANGE LJ: AVERAGE A AND B COEFFICIENTS 70974 AND 74.5925
Info: STRUCTURE SUMMARY:
Info: 25964 ATOMS
Info: 17567 BONDS
Info: 9917 ANGLES
Info: 2278 DIHEDRALS
Info: 177 IMPROPERS
Info: 54 CROSSTERMS
Info: 0 EXCLUSIONS
Info: 25489 RIGID BONDS
Info: 52403 DEGREES OF FREEDOM
Info: 8824 HYDROGEN GROUPS
Info: 4 ATOMS IN LARGEST HYDROGEN GROUP
Info: 8824 MIGRATION GROUPS
Info: 4 ATOMS IN LARGEST MIGRATION GROUP
Info: TOTAL MASS = 157931 amu
Info: TOTAL CHARGE = 3 e
Info: MASS DENSITY = 1.02255 g/cm^3
Info: ATOM DENSITY = 0.101235 atoms/A^3
Info: ADDED 29751 IMPLICIT EXCLUSIONS
Info: NONBONDED TABLE R-SQUARED SPACING: 0.0625
Info: NONBONDED TABLE SIZE: 769 POINTS
TCL: Reinitializing atom data from files with basename 4/namdcph.md
Info: REMOVING COM VELOCITY -0.00201487 0.000866774 0.000564801
TCL: Minimizing for 300 steps
ETITLE: TS BOND ANGLE DIHED IMPRP ELECT VDW BOUNDARY MISC KINETIC TOTAL TEMP POTENTIAL TOTAL3 TEMPAVG PRESSURE GPRESSURE VOLUME PRESSAVG GPRESSAVG
ENERGY: 0 62.9680 106.0016 443.3923 0.5578 -82666.0618 99999999999.9999 0.0000 0.0000 0.0000 99999999999.9999 0.0000 99999999999.9999 99999999999.9999 0.0000 99999999999.9999 99999999999.9999 256473.6171 99999999999.9999 99999999999.9999
ENERGY: 60 156.8300 160.0531 432.8201 7.7662 -94765.1895 11672.0727 0.0000 0.0000 0.0000 -82335.6473 0.0000 -82335.6473 -82335.6473 0.0000 24123.5715 5152.7814 256473.6171 24123.5715 5152.7814
ENERGY: 120 31.5558 165.7349 432.5075 8.3503 -98085.0794 10152.8532 0.0000 0.0000 0.0000 -87294.0777 0.0000 -87294.0777 -87294.0777 0.0000 21735.1240 2038.9190 256473.6171 21735.1240 2038.9190
ENERGY: 180 125.4131 145.4316 431.9123 7.8014 -101025.9969 9244.9052 0.0000 0.0000 0.0000 -91070.5333 0.0000 -91070.5333 -91070.5333 0.0000 20405.8031 102.2882 256473.6171 20405.8031 102.2882
ENERGY: 240 52.4567 173.6479 430.3690 8.5781 -102733.4183 8918.6227 0.0000 0.0000 0.0000 -93149.7439 0.0000 -93149.7439 -93149.7439 0.0000 19844.4256 19765.9996 256473.6171 19844.4256 19765.9996
ENERGY: 300 140.3627 225.7716 427.7105 8.2834 -105407.6889 8818.6932 0.0000 0.0000 0.0000 -95786.8674 0.0000 -95786.8674 -95786.8674 0.0000 19496.4174 19418.3955 256473.6171 19496.4174 19418.3955
TCL: Setting parameter firstTimeStep to 0
TCL: Running for 500 steps
ETITLE: TS BOND ANGLE DIHED IMPRP ELECT VDW BOUNDARY MISC KINETIC TOTAL TEMP POTENTIAL TOTAL3 TEMPAVG PRESSURE GPRESSURE VOLUME PRESSAVG GPRESSAVG
ENERGY: 0 140.3627 225.7716 427.7105 8.2834 -105407.6888 8818.6932 0.0000 0.0000 15836.4599 -79950.4075 304.1532 -95786.8673 -79975.8538 304.1532 -2543.2817 -2471.2865 256473.6171 -2543.2817 -2471.2865
TCL: namdcph) Proposal rejected.
TCL: Running for 500 steps without repeating first step
ETITLE: TS BOND ANGLE DIHED IMPRP ELECT VDW BOUNDARY MISC KINETIC TOTAL TEMP POTENTIAL TOTAL3 TEMPAVG PRESSURE GPRESSURE VOLUME PRESSAVG GPRESSAVG
ENERGY: 1000 159.9127 441.1341 481.1323 30.0898 -100833.6962 9147.3103 0.0000 0.0000 13808.4826 -76765.6343 265.2041 -90574.1169 -76734.9164 248.7303 -627.7905 -593.0561 256473.6171 -447.4008 -447.4967
TCL: namdcph) Proposal rejected.
TCL: Running for 500 steps without repeating first step
TCL: namdcph) Proposal rejected.
TCL: Running for 500 steps without repeating first step
ETITLE: TS BOND ANGLE DIHED IMPRP ELECT VDW BOUNDARY MISC KINETIC TOTAL TEMP POTENTIAL TOTAL3 TEMPAVG PRESSURE GPRESSURE VOLUME PRESSAVG GPRESSAVG
ENERGY: 2000 163.8313 500.5550 475.4353 36.8641 -98991.6092 8517.1857 0.0000 0.0000 14702.2228 -74595.5150 282.3691 -89297.7378 -74561.8565 274.7217 -693.9068 -666.4651 256473.6171 -464.1209 -464.0776
TCL: namdcph) Proposal rejected.
TCL: Running for 500 steps without repeating first step
TCL: namdcph) Proposal rejected.
TCL: Running for 500 steps without repeating first step
ETITLE: TS BOND ANGLE DIHED IMPRP ELECT VDW BOUNDARY MISC KINETIC TOTAL TEMP POTENTIAL TOTAL3 TEMPAVG PRESSURE GPRESSURE VOLUME PRESSAVG GPRESSAVG
ENERGY: 3000 178.5549 477.8569 486.6005 33.4831 -98277.0418 8611.7907 0.0000 0.0000 14995.3009 -73493.4546 287.9980 -88488.7555 -73456.9012 285.5116 -376.1500 -336.7042 256473.6171 -336.9052 -336.9926
TCL: namdcph) Proposal rejected.
TCL: Running for 500 steps without repeating first step
TCL: namdcph) Proposal rejected.
TCL: Running for 500 steps without repeating first step
ETITLE: TS BOND ANGLE DIHED IMPRP ELECT VDW BOUNDARY MISC KINETIC TOTAL TEMP POTENTIAL TOTAL3 TEMPAVG PRESSURE GPRESSURE VOLUME PRESSAVG GPRESSAVG
ENERGY: 4000 145.3869 499.5143 482.7257 27.6166 -97890.4472 8676.8625 0.0000 0.0000 15307.2972 -72751.0439 293.9901 -88058.3412 -72719.5699 291.4939 -112.3099 -83.9535 256473.6171 -230.2896 -230.4295
TCL: namdcph) Proposal rejected.
TCL: Running for 500 steps without repeating first step
TCL: namdcph) Proposal rejected.
TCL: Running for 500 steps without repeating first step
ETITLE: TS BOND ANGLE DIHED IMPRP ELECT VDW BOUNDARY MISC KINETIC TOTAL TEMP POTENTIAL TOTAL3 TEMPAVG PRESSURE GPRESSURE VOLUME PRESSAVG GPRESSAVG
ENERGY: 5000 156.7157 461.8577 492.7949 28.7701 -97697.4567 8503.6962 0.0000 0.0000 15398.5199 -72655.1021 295.7421 -88053.6220 -72620.0490 294.2559 -182.6306 -146.9138 256473.6171 -212.8043 -212.7329
TCL: namdcph) Proposal rejected.
TCL: Running for 500 steps without repeating first step
TCL: namdcph) Proposal rejected.
TCL: Running for 500 steps without repeating first step
ETITLE: TS BOND ANGLE DIHED IMPRP ELECT VDW BOUNDARY MISC KINETIC TOTAL TEMP POTENTIAL TOTAL3 TEMPAVG PRESSURE GPRESSURE VOLUME PRESSAVG GPRESSAVG
ENERGY: 6000 159.2802 470.4723 483.4626 31.9601 -97520.8708 8446.8030 0.0000 0.0000 15486.2345 -72442.6581 297.4268 -87928.8927 -72400.5282 293.9323 -164.4094 -122.0057 256473.6171 -235.2078 -235.1986
TCL: namdcph) Proposal rejected.
TCL: Running for 500 steps without repeating first step
TCL: namdcph) Proposal rejected.
TCL: Running for 500 steps without repeating first step
ETITLE: TS BOND ANGLE DIHED IMPRP ELECT VDW BOUNDARY MISC KINETIC TOTAL TEMP POTENTIAL TOTAL3 TEMPAVG PRESSURE GPRESSURE VOLUME PRESSAVG GPRESSAVG
ENERGY: 7000 160.0034 485.2665 479.0447 30.3783 -97249.4427 8429.1422 0.0000 0.0000 15547.4942 -72118.1133 298.6033 -87665.6075 -72079.2656 297.1069 -173.2474 -140.8185 256473.6171 -216.1960 -216.3436
TCL: namdcph) Proposal rejected.
TCL: Running for 500 steps without repeating first step
TCL: namdcph) Proposal rejected.
TCL: Running for 500 steps without repeating first step
ETITLE: TS BOND ANGLE DIHED IMPRP ELECT VDW BOUNDARY MISC KINETIC TOTAL TEMP POTENTIAL TOTAL3 TEMPAVG PRESSURE GPRESSURE VOLUME PRESSAVG GPRESSAVG
ENERGY: 8000 161.8235 483.6210 477.1381 41.3311 -97501.6108 8584.6004 0.0000 0.0000 15376.3041 -72376.7926 295.3155 -87753.0968 -72340.7008 297.1736 -128.7724 -93.7663 256473.6171 -213.9717 -213.8270
TCL: namdcph) Proposal rejected.
TCL: Running for 500 steps without repeating first step
TCL: namdcph) Proposal rejected.
TCL: Running for 500 steps without repeating first step
ETITLE: TS BOND ANGLE DIHED IMPRP ELECT VDW BOUNDARY MISC KINETIC TOTAL TEMP POTENTIAL TOTAL3 TEMPAVG PRESSURE GPRESSURE VOLUME PRESSAVG GPRESSAVG
ENERGY: 9000 162.1092 492.7578 479.8612 34.9836 -97281.0836 8393.1034 0.0000 0.0000 15343.8355 -72374.4329 294.6919 -87718.2684 -72338.9709 295.0164 -317.4434 -282.0894 256473.6171 -231.1276 -231.1895
TCL: namdcph) Proposal rejected.
TCL: Running for 500 steps without repeating first step
TCL: namdcph) Proposal rejected.
TCL: Running for 500 steps without repeating first step
ETITLE: TS BOND ANGLE DIHED IMPRP ELECT VDW BOUNDARY MISC KINETIC TOTAL TEMP POTENTIAL TOTAL3 TEMPAVG PRESSURE GPRESSURE VOLUME PRESSAVG GPRESSAVG
ENERGY: 10000 166.2107 482.5659 472.2215 43.1809 -97195.1938 8398.9117 0.0000 0.0000 15473.0571 -72159.0460 297.1737 -87632.1031 -72122.0045 297.2144 -281.2174 -245.1982 256473.6171 -131.8516 -131.7444
TCL: namdcph) Proposal rejected.
TCL: Running for 500 steps without repeating first step
TCL: namdcph) Proposal rejected.
TCL: Running for 500 steps without repeating first step
ETITLE: TS BOND ANGLE DIHED IMPRP ELECT VDW BOUNDARY MISC KINETIC TOTAL TEMP POTENTIAL TOTAL3 TEMPAVG PRESSURE GPRESSURE VOLUME PRESSAVG GPRESSAVG
ENERGY: 11000 164.5460 501.2255 483.8601 32.7872 -96856.7665 8091.2607 0.0000 0.0000 15425.4422 -72157.6450 296.2592 -87583.0872 -72120.6148 296.9891 -549.6626 -517.4325 256473.6171 -200.9999 -201.0581
TCL: namdcph) Proposal rejected.
TCL: Running for 500 steps without repeating first step
TCL: namdcph) Proposal rejected.
TCL: Running for 500 steps without repeating first step
ETITLE: TS BOND ANGLE DIHED IMPRP ELECT VDW BOUNDARY MISC KINETIC TOTAL TEMP POTENTIAL TOTAL3 TEMPAVG PRESSURE GPRESSURE VOLUME PRESSAVG GPRESSAVG
ENERGY: 12000 162.2569 502.0850 465.1109 31.3847 -97462.4160 8517.0748 0.0000 0.0000 15533.0420 -72251.4617 298.3258 -87784.5038 -72212.2822 296.8659 -93.6982 -59.3413 256473.6171 -147.9726 -148.0348
TCL: namdcph) Proposal rejected.
TCL: Running for 500 steps without repeating first step
TCL: namdcph) Proposal rejected.
TCL: Running for 500 steps without repeating first step
ETITLE: TS BOND ANGLE DIHED IMPRP ELECT VDW BOUNDARY MISC KINETIC TOTAL TEMP POTENTIAL TOTAL3 TEMPAVG PRESSURE GPRESSURE VOLUME PRESSAVG GPRESSAVG
ENERGY: 13000 157.1746 481.1329 479.7592 37.5632 -97015.1739 8260.3865 0.0000 0.0000 15524.9865 -72074.1710 298.1710 -87599.1576 -72040.1516 296.5547 -226.5743 -184.9566 256473.6171 -220.0671 -220.1077
TCL: namdcph) Proposal rejected.
TCL: Running for 500 steps without repeating first step
TCL: namdcph) Proposal rejected.
TCL: Running for 500 steps without repeating first step
ETITLE: TS BOND ANGLE DIHED IMPRP ELECT VDW BOUNDARY MISC KINETIC TOTAL TEMP POTENTIAL TOTAL3 TEMPAVG PRESSURE GPRESSURE VOLUME PRESSAVG GPRESSAVG
ENERGY: 14000 163.3980 462.2140 482.8716 24.5693 -97366.7473 8500.4932 0.0000 0.0000 15447.7125 -72285.4887 296.6869 -87733.2012 -72247.1832 297.2343 -243.3680 -212.9226 256473.6171 -162.4032 -162.4351
TCL: namdcph) Proposal rejected.
TCL: Running for 500 steps without repeating first step
TCL: namdcph) Proposal rejected.
TCL: Running for 500 steps without repeating first step
ETITLE: TS BOND ANGLE DIHED IMPRP ELECT VDW BOUNDARY MISC KINETIC TOTAL TEMP POTENTIAL TOTAL3 TEMPAVG PRESSURE GPRESSURE VOLUME PRESSAVG GPRESSAVG
ENERGY: 15000 166.3924 495.5402 485.5446 31.7818 -97520.3068 8508.7594 0.0000 0.0000 15441.5527 -72390.7358 296.5686 -87832.2884 -72351.8580 295.9831 -243.5090 -210.8625 256473.6171 -208.0342 -208.0068
TCL: namdcph) Proposal rejected.
TCL: Running for 500 steps without repeating first step
TCL: namdcph) Proposal rejected.
TCL: Running for 500 steps without repeating first step
ETITLE: TS BOND ANGLE DIHED IMPRP ELECT VDW BOUNDARY MISC KINETIC TOTAL TEMP POTENTIAL TOTAL3 TEMPAVG PRESSURE GPRESSURE VOLUME PRESSAVG GPRESSAVG
ENERGY: 16000 176.4105 515.0149 469.1629 28.7828 -97198.4015 8370.2145 0.0000 0.0000 15386.7253 -72252.0905 295.5156 -87638.8158 -72213.4555 296.3796 -327.2622 -292.9199 256473.6171 -185.1230 -184.9323
TCL: namdcph) Proposal rejected.
TCL: Running for 500 steps without repeating first step
TCL: namdcph) Proposal rejected.
TCL: Running for 500 steps without repeating first step
ETITLE: TS BOND ANGLE DIHED IMPRP ELECT VDW BOUNDARY MISC KINETIC TOTAL TEMP POTENTIAL TOTAL3 TEMPAVG PRESSURE GPRESSURE VOLUME PRESSAVG GPRESSAVG
ENERGY: 17000 167.0226 468.6790 467.2685 29.5870 -97358.8169 8418.2486 0.0000 0.0000 15675.7190 -72132.2922 301.0660 -87808.0112 -72095.7733 296.9873 -232.0143 -200.5720 256473.6171 -182.3775 -182.3726
TCL: namdcph) Proposal rejected.
TCL: Running for 500 steps without repeating first step
TCL: namdcph) Proposal rejected.
TCL: Running for 500 steps without repeating first step
ETITLE: TS BOND ANGLE DIHED IMPRP ELECT VDW BOUNDARY MISC KINETIC TOTAL TEMP POTENTIAL TOTAL3 TEMPAVG PRESSURE GPRESSURE VOLUME PRESSAVG GPRESSAVG
ENERGY: 18000 178.5965 472.6515 475.6049 29.3365 -97283.1003 8552.4952 0.0000 0.0000 15561.4290 -72012.9868 298.8710 -87574.4158 -71976.9265 298.3712 14.1143 51.4949 256473.6171 -169.1549 -169.3008
TCL: namdcph) Proposal rejected.
TCL: Running for 500 steps without repeating first step
TCL: namdcph) Proposal rejected.
TCL: Running for 500 steps without repeating first step
ETITLE: TS BOND ANGLE DIHED IMPRP ELECT VDW BOUNDARY MISC KINETIC TOTAL TEMP POTENTIAL TOTAL3 TEMPAVG PRESSURE GPRESSURE VOLUME PRESSAVG GPRESSAVG
ENERGY: 19000 163.3215 521.9156 472.5325 36.9553 -97212.8323 8406.5029 0.0000 0.0000 15584.3642 -72027.2403 299.3114 -87611.6045 -71985.9138 297.4572 -133.5596 -95.8609 256473.6171 -201.8122 -201.9099
TCL: namdcph) Proposal rejected.
TCL: Running for 500 steps without repeating first step
TCL: namdcph) Proposal rejected.
TCL: Running for 500 steps without repeating first step
ETITLE: TS BOND ANGLE DIHED IMPRP ELECT VDW BOUNDARY MISC KINETIC TOTAL TEMP POTENTIAL TOTAL3 TEMPAVG PRESSURE GPRESSURE VOLUME PRESSAVG GPRESSAVG
ENERGY: 20000 174.2221 487.2753 471.4708 31.0618 -97296.9819 8554.6189 0.0000 0.0000 15484.8837 -72093.4494 297.4008 -87578.3331 -72056.1249 298.0968 -27.7441 10.3521 256473.6171 -150.2329 -150.2945
TCL: namdcph) Proposal rejected.
TCL: Running for 500 steps without repeating first step
TCL: namdcph) Proposal rejected.
TCL: Running for 500 steps without repeating first step
ETITLE: TS BOND ANGLE DIHED IMPRP ELECT VDW BOUNDARY MISC KINETIC TOTAL TEMP POTENTIAL TOTAL3 TEMPAVG PRESSURE GPRESSURE VOLUME PRESSAVG GPRESSAVG
ENERGY: 21000 164.1211 488.4837 473.0894 37.9721 -96875.8648 8119.9716 0.0000 0.0000 15615.7813 -71976.4457 299.9148 -87592.2269 -71943.4421 297.7918 -416.6317 -383.1952 256473.6171 -187.0619 -187.0443
TCL: namdcph) Proposal rejected.
TCL: Running for 500 steps without repeating first step
TCL: namdcph) Proposal rejected.
TCL: Running for 500 steps without repeating first step
ETITLE: TS BOND ANGLE DIHED IMPRP ELECT VDW BOUNDARY MISC KINETIC TOTAL TEMP POTENTIAL TOTAL3 TEMPAVG PRESSURE GPRESSURE VOLUME PRESSAVG GPRESSAVG
ENERGY: 22000 174.9209 472.4895 470.1105 37.2398 -97261.8213 8368.1211 0.0000 0.0000 15524.2453 -72214.6942 298.1568 -87738.9395 -72181.5003 297.6637 -259.8694 -222.6116 256473.6171 -180.0153 -179.9419
TCL: namdcph) Proposal rejected.
TCL: Running for 500 steps without repeating first step
TCL: namdcph) Proposal rejected.
TCL: Running for 500 steps without repeating first step
ETITLE: TS BOND ANGLE DIHED IMPRP ELECT VDW BOUNDARY MISC KINETIC TOTAL TEMP POTENTIAL TOTAL3 TEMPAVG PRESSURE GPRESSURE VOLUME PRESSAVG GPRESSAVG
ENERGY: 23000 160.6841 511.1007 469.8189 28.3934 -97170.4335 8342.8457 0.0000 0.0000 15520.6174 -72136.9733 298.0871 -87657.5907 -72101.1052 296.2741 -223.6996 -194.3460 256473.6171 -238.8048 -238.9195
TCL: namdcph) Proposal rejected.
TCL: Running for 500 steps without repeating first step
TCL: namdcph) Proposal rejected.
TCL: Running for 500 steps without repeating first step
ETITLE: TS BOND ANGLE DIHED IMPRP ELECT VDW BOUNDARY MISC KINETIC TOTAL TEMP POTENTIAL TOTAL3 TEMPAVG PRESSURE GPRESSURE VOLUME PRESSAVG GPRESSAVG
ENERGY: 24000 173.5251 465.1741 484.1824 35.7731 -97089.2218 8372.9561 0.0000 0.0000 15460.4014 -72097.2097 296.9306 -87557.6111 -72056.6179 297.9079 -229.9549 -199.5447 256473.6171 -143.5179 -143.5653
TCL: namdcph) Proposal rejected.
TCL: Running for 500 steps without repeating first step
TCL: namdcph) Proposal rejected.
TCL: Running for 500 steps without repeating first step
ETITLE: TS BOND ANGLE DIHED IMPRP ELECT VDW BOUNDARY MISC KINETIC TOTAL TEMP POTENTIAL TOTAL3 TEMPAVG PRESSURE GPRESSURE VOLUME PRESSAVG GPRESSAVG
ENERGY: 25000 168.5979 479.3324 466.3213 37.6494 -97026.6923 8401.3840 0.0000 0.0000 15341.2884 -72132.1188 294.6430 -87473.4072 -72089.1324 297.5774 -194.3889 -159.9297 256473.6171 -113.6347 -113.6971
TCL: namdcph) Proposal rejected.
TCL: Running for 500 steps without repeating first step
TCL: namdcph) Proposal rejected.
TCL: Running for 500 steps without repeating first step
ETITLE: TS BOND ANGLE DIHED IMPRP ELECT VDW BOUNDARY MISC KINETIC TOTAL TEMP POTENTIAL TOTAL3 TEMPAVG PRESSURE GPRESSURE VOLUME PRESSAVG GPRESSAVG
ENERGY: 26000 156.9457 497.4531 462.9668 25.6973 -97315.1097 8483.9764 0.0000 0.0000 15580.2116 -72107.8587 299.2317 -87688.0703 -72069.7387 297.8180 -98.9654 -69.0890 256473.6171 -61.8933 -61.8179
TCL: namdcph) Proposal rejected.
TCL: Running for 500 steps without repeating first step
TCL: namdcph) Proposal rejected.
TCL: Running for 500 steps without repeating first step
ETITLE: TS BOND ANGLE DIHED IMPRP ELECT VDW BOUNDARY MISC KINETIC TOTAL TEMP POTENTIAL TOTAL3 TEMPAVG PRESSURE GPRESSURE VOLUME PRESSAVG GPRESSAVG
ENERGY: 27000 160.6755 505.9872 465.1113 32.8038 -97240.8800 8441.8019 0.0000 0.0000 15552.1870 -72082.3133 298.6935 -87634.5003 -72046.7190 297.0269 -220.9757 -183.6369 256473.6171 -155.7234 -155.6313
TCL: namdcph) Proposal rejected.
TCL: Running for 500 steps without repeating first step
TCL: namdcph) Proposal rejected.
TCL: Running for 500 steps without repeating first step
ETITLE: TS BOND ANGLE DIHED IMPRP ELECT VDW BOUNDARY MISC KINETIC TOTAL TEMP POTENTIAL TOTAL3 TEMPAVG PRESSURE GPRESSURE VOLUME PRESSAVG GPRESSAVG
ENERGY: 28000 165.3575 487.7288 468.0468 30.7462 -97116.2995 8208.2665 0.0000 0.0000 15425.9998 -72330.1539 296.2699 -87756.1537 -72293.6564 296.5145 -514.1810 -482.0837 256473.6171 -212.9736 -213.0142
TCL: namdcph) Proposal rejected.
TCL: Running for 500 steps without repeating first step
TCL: namdcph) Proposal accepted, attemping a switch.
TCL: Setting parameter outputEnergies to 75000
TCL: Setting parameter dcdFreq to 0
TCL: Setting parameter firstTimestep to 0
TCL: Setting parameter alch to on
Info: NONBONDED TABLE R-SQUARED SPACING: 0.0625
Info: NONBONDED TABLE SIZE: 769 POINTS
TCL: Writing to files with basename 4/namdcph.md.
TCL: cphpsfgen) creating new alchemical side chain for PP1:950:ASP
TCL: Reloading molecular structure from file 4/namdcph.sw.psf and pdb file 4/namdcph.sw.pdb
Info: READING EXTRA BONDS FILE 4/namdcph.sw.extrabonds
Info: READ 8 EXTRA BONDS
Info: To read alchdata from file: coordinate pdb file (default)
Info: To read alchflag data from column: 5
Info: LONG-RANGE LJ: APPLYING ANALYTICAL CORRECTIONS TO ENERGY AND PRESSURE
Info: LONG-RANGE LJ: AVERAGE A0 AND B0 COEFFICIENTS 70974 AND 74.5925
Info: LONG-RANGE LJ: AVERAGE A1 AND B1 COEFFICIENTS 70974.7 AND 74.5945
Info: STRUCTURE SUMMARY:
Info: 25972 ATOMS
Info: 17583 BONDS
Info: 9931 ANGLES
Info: 2301 DIHEDRALS
Info: 178 IMPROPERS
Info: 54 CROSSTERMS
Info: 0 EXCLUSIONS
Info: 25493 RIGID BONDS
Info: ALCH: 8 ATOMS TO DISAPPEAR IN FINAL STATE
Info: ALCH: 8 ATOMS TO APPEAR IN FINAL STATE
Info: ALCH: 6 DIHEDRALS LINKING INITIAL AND FINAL ATOMS DELETED
Info: 52423 DEGREES OF FREEDOM
Info: 8828 HYDROGEN GROUPS
Info: 4 ATOMS IN LARGEST HYDROGEN GROUP
Info: 8828 MIGRATION GROUPS
Info: 4 ATOMS IN LARGEST MIGRATION GROUP
Info: TOTAL MASS = 157991 amu
Info: TOTAL CHARGE = 2 e
Info: MASS DENSITY = 1.02294 g/cm^3
Info: ATOM DENSITY = 0.101266 atoms/A^3
Info: ADDED 29796 IMPLICIT EXCLUSIONS
Info: NONBONDED TABLE R-SQUARED SPACING: 0.0625
Info: NONBONDED TABLE SIZE: 769 POINTS
TCL: Reinitializing atom data from files with basename 4/namdcph.sw
Info: REMOVING COM VELOCITY 0.00957916 -0.0224726 0.0387237
TCL: Running for 75000 steps
ETITLE: TS BOND ANGLE DIHED IMPRP ELECT VDW BOUNDARY MISC KINETIC TOTAL TEMP POTENTIAL TOTAL3 TEMPAVG PRESSURE GPRESSURE VOLUME PRESSAVG GPRESSAVG
ENERGY: 0 174.5156 482.7901 465.5195 42.0665 -97408.2614 8621.4079 0.0000 0.0000 15474.1841 -72147.7777 297.0820 -87621.9618 -72111.9548 296.8477 -36.4096 1.0847 256473.6171 -185.4478 -185.1407
ENERGY: 75000 188.7735 475.7726 491.7691 34.6300 -97323.4833 8537.2840 0.0000 0.0000 15510.3568 -72084.8973 297.7764 -87595.2541 -72048.8376 296.9989 -77.2616 -42.8214 256473.6171 -187.7926 -187.7887
TCL: Setting parameter outputEnergies to 1000
TCL: Setting parameter dcdFreq to 1000
TCL: namdcph) PP1:950:ASP:1:D WorkCorr    48.2547 CorrWork    -1.3941
TCL: Setting parameter outputEnergies to 1000
TCL: Setting parameter dcdFreq to 1000
TCL: Setting parameter firstTimestep to 28500
TCL: namdcph) Switch accepted!
TCL: Writing to files with basename 4/namdcph.sw.
TCL: cphpsfgen) merging alchemical sidechains for PP1:950:ASP
TCL: Setting parameter alch to off
Info: NONBONDED TABLE R-SQUARED SPACING: 0.0625
Info: NONBONDED TABLE SIZE: 769 POINTS
TCL: namdcph) clearing extraBondsFile 4/namdcph.sw.extrabonds
TCL: Reloading molecular structure from file 4/namdcph.md.psf and pdb file 4/namdcph.md.pdb
Info: READING EXTRA BONDS FILE 4/namdcph.sw.extrabonds
Info: LONG-RANGE LJ: APPLYING ANALYTICAL CORRECTIONS TO ENERGY AND PRESSURE
Info: LONG-RANGE LJ: AVERAGE A AND B COEFFICIENTS 70974.7 AND 74.5945
Info: STRUCTURE SUMMARY:
Info: 25964 ATOMS
Info: 17567 BONDS
Info: 9917 ANGLES
Info: 2278 DIHEDRALS
Info: 177 IMPROPERS
Info: 54 CROSSTERMS
Info: 0 EXCLUSIONS
Info: 25489 RIGID BONDS
Info: 52403 DEGREES OF FREEDOM
Info: 8824 HYDROGEN GROUPS
Info: 4 ATOMS IN LARGEST HYDROGEN GROUP
Info: 8824 MIGRATION GROUPS
Info: 4 ATOMS IN LARGEST MIGRATION GROUP
Info: TOTAL MASS = 157931 amu
Info: TOTAL CHARGE = 2 e
Info: MASS DENSITY = 1.02255 g/cm^3
Info: ATOM DENSITY = 0.101235 atoms/A^3
Info: ADDED 29751 IMPLICIT EXCLUSIONS
Info: NONBONDED TABLE R-SQUARED SPACING: 0.0625
Info: NONBONDED TABLE SIZE: 769 POINTS
TCL: Reinitializing atom data from files with basename 4/namdcph.md
Info: REMOVING COM VELOCITY 0.0313942 -0.00359369 0.0118289
TCL: Running for 500 steps
ETITLE: TS BOND ANGLE DIHED IMPRP ELECT VDW BOUNDARY MISC KINETIC TOTAL TEMP POTENTIAL TOTAL3 TEMPAVG PRESSURE GPRESSURE VOLUME PRESSAVG GPRESSAVG
ENERGY: 29000 164.9683 504.3224 484.4774 32.2823 -97141.6448 8323.0225 0.0000 0.0000 15453.3091 -72179.2628 296.7944 -87632.5719 -72145.8425 297.8468 -257.8947 -230.8988 256473.6171 -184.1217 -184.1413
TCL: namdcph) Proposal rejected.
TCL: Running for 500 steps without repeating first step
TCL: namdcph) Proposal accepted, attemping a switch.
TCL: Setting parameter outputEnergies to 75000
TCL: Setting parameter dcdFreq to 0
TCL: Setting parameter firstTimestep to 0
TCL: Setting parameter alch to on
Info: NONBONDED TABLE R-SQUARED SPACING: 0.0625
Info: NONBONDED TABLE SIZE: 769 POINTS
TCL: Writing to files with basename 4/namdcph.md.
TCL: cphpsfgen) creating new alchemical side chain for PP1:950:ASP
TCL: Reloading molecular structure from file 4/namdcph.sw.psf and pdb file 4/namdcph.sw.pdb
Info: READING EXTRA BONDS FILE 4/namdcph.sw.extrabonds
Info: READ 8 EXTRA BONDS
Info: To read alchdata from file: coordinate pdb file (default)
Info: To read alchflag data from column: 5
Info: LONG-RANGE LJ: APPLYING ANALYTICAL CORRECTIONS TO ENERGY AND PRESSURE
Info: LONG-RANGE LJ: AVERAGE A0 AND B0 COEFFICIENTS 70974.7 AND 74.5945
Info: LONG-RANGE LJ: AVERAGE A1 AND B1 COEFFICIENTS 70974 AND 74.5925
Info: STRUCTURE SUMMARY:
Info: 25972 ATOMS
Info: 17583 BONDS
Info: 9931 ANGLES
Info: 2301 DIHEDRALS
Info: 178 IMPROPERS
Info: 54 CROSSTERMS
Info: 0 EXCLUSIONS
Info: 25493 RIGID BONDS
Info: ALCH: 8 ATOMS TO DISAPPEAR IN FINAL STATE
Info: ALCH: 8 ATOMS TO APPEAR IN FINAL STATE
Info: ALCH: 6 DIHEDRALS LINKING INITIAL AND FINAL ATOMS DELETED
Info: 52423 DEGREES OF FREEDOM
Info: 8828 HYDROGEN GROUPS
Info: 4 ATOMS IN LARGEST HYDROGEN GROUP
Info: 8828 MIGRATION GROUPS
Info: 4 ATOMS IN LARGEST MIGRATION GROUP
Info: TOTAL MASS = 157991 amu
Info: TOTAL CHARGE = 2 e
Info: MASS DENSITY = 1.02294 g/cm^3
Info: ATOM DENSITY = 0.101266 atoms/A^3
Info: ADDED 29796 IMPLICIT EXCLUSIONS
Info: NONBONDED TABLE R-SQUARED SPACING: 0.0625
Info: NONBONDED TABLE SIZE: 769 POINTS
TCL: Reinitializing atom data from files with basename 4/namdcph.sw
Info: REMOVING COM VELOCITY 0.0181231 0.0390408 -0.00965602
TCL: Running for 75000 steps
ETITLE: TS BOND ANGLE DIHED IMPRP ELECT VDW BOUNDARY MISC KINETIC TOTAL TEMP POTENTIAL TOTAL3 TEMPAVG PRESSURE GPRESSURE VOLUME PRESSAVG GPRESSAVG
ENERGY: 0 155.6208 526.8649 484.0488 32.6179 -97238.6031 8290.6951 0.0000 0.0000 15614.7823 -72133.9734 299.7812 -87748.7557 -72097.4745 297.4265 -251.8154 -217.5213 256473.6171 -196.6806 -196.4027
ENERGY: 75000 177.7830 490.8501 465.2202 37.6501 -97393.0518 8507.8045 0.0000 0.0000 15366.0084 -72347.7355 295.0051 -87713.7440 -72309.9633 297.0474 -141.6502 -104.2835 256473.6171 -179.5233 -179.5033
TCL: Setting parameter outputEnergies to 1000
TCL: Setting parameter dcdFreq to 1000
TCL: namdcph) PP1:950:ASP:D:2 WorkCorr   -48.2547 CorrWork     1.8778
TCL: Setting parameter outputEnergies to 1000
TCL: Setting parameter dcdFreq to 1000
TCL: Setting parameter firstTimestep to 29500
TCL: namdcph) Switch rejected!
TCL: Setting parameter alch to off
Info: NONBONDED TABLE R-SQUARED SPACING: 0.0625
Info: NONBONDED TABLE SIZE: 769 POINTS
TCL: namdcph) clearing extraBondsFile 4/namdcph.sw.extrabonds
TCL: Reloading molecular structure from file 4/namdcph.md.psf and pdb file 4/namdcph.md.pdb
Info: READING EXTRA BONDS FILE 4/namdcph.sw.extrabonds
Info: LONG-RANGE LJ: APPLYING ANALYTICAL CORRECTIONS TO ENERGY AND PRESSURE
Info: LONG-RANGE LJ: AVERAGE A AND B COEFFICIENTS 70974.7 AND 74.5945
Info: STRUCTURE SUMMARY:
Info: 25964 ATOMS
Info: 17567 BONDS
Info: 9917 ANGLES
Info: 2278 DIHEDRALS
Info: 177 IMPROPERS
Info: 54 CROSSTERMS
Info: 0 EXCLUSIONS
Info: 25489 RIGID BONDS
Info: 52403 DEGREES OF FREEDOM
Info: 8824 HYDROGEN GROUPS
Info: 4 ATOMS IN LARGEST HYDROGEN GROUP
Info: 8824 MIGRATION GROUPS
Info: 4 ATOMS IN LARGEST MIGRATION GROUP
Info: TOTAL MASS = 157931 amu
Info: TOTAL CHARGE = 2 e
Info: MASS DENSITY = 1.02255 g/cm^3
Info: ATOM DENSITY = 0.101235 atoms/A^3
Info: ADDED 29751 IMPLICIT EXCLUSIONS
Info: NONBONDED TABLE R-SQUARED SPACING: 0.0625
Info: NONBONDED TABLE SIZE: 769 POINTS
TCL: Reinitializing atom data from files with basename 4/namdcph.md
Info: REMOVING COM VELOCITY 0.0189043 0.0396341 -0.00958477
TCL: Running for 500 steps
ETITLE: TS BOND ANGLE DIHED IMPRP ELECT VDW BOUNDARY MISC KINETIC TOTAL TEMP POTENTIAL TOTAL3 TEMPAVG PRESSURE GPRESSURE VOLUME PRESSAVG GPRESSAVG
ENERGY: 30000 179.0545 489.5321 475.4411 35.4486 -97229.1014 8411.4970 0.0000 0.0000 15524.9066 -72113.2213 298.1695 -87638.1280 -72070.2751 297.1187 -184.8465 -152.1889 256473.6171 -197.2600 -197.0464
TCL: namdcph) Proposal rejected.
TCL: Running for 500 steps without repeating first step
TCL: namdcph) Proposal rejected.
TCL: Running for 500 steps without repeating first step
ETITLE: TS BOND ANGLE DIHED IMPRP ELECT VDW BOUNDARY MISC KINETIC TOTAL TEMP POTENTIAL TOTAL3 TEMPAVG PRESSURE GPRESSURE VOLUME PRESSAVG GPRESSAVG
ENERGY: 31000 172.6075 505.5882 472.2252 33.6443 -97088.2322 8333.6531 0.0000 0.0000 15377.6405 -72192.8735 295.3411 -87570.5140 -72157.7236 297.5984 -296.3089 -263.4202 256473.6171 -154.2430 -154.1809
TCL: namdcph) Proposal rejected.
TCL: Running for 500 steps without repeating first step
TCL: namdcph) Proposal rejected.
TCL: Running for 500 steps without repeating first step
ETITLE: TS BOND ANGLE DIHED IMPRP ELECT VDW BOUNDARY MISC KINETIC TOTAL TEMP POTENTIAL TOTAL3 TEMPAVG PRESSURE GPRESSURE VOLUME PRESSAVG GPRESSAVG
ENERGY: 32000 167.5087 492.2700 481.3991 37.0852 -97523.2048 8653.8004 0.0000 0.0000 15456.0354 -72235.1059 296.8468 -87691.1413 -72195.7547 296.6667 13.3868 46.1150 256473.6171 -226.3507 -226.3317
TCL: namdcph) Proposal rejected.
TCL: Running for 500 steps without repeating first step
TCL: namdcph) Proposal rejected.
TCL: Running for 500 steps without repeating first step
ETITLE: TS BOND ANGLE DIHED IMPRP ELECT VDW BOUNDARY MISC KINETIC TOTAL TEMP POTENTIAL TOTAL3 TEMPAVG PRESSURE GPRESSURE VOLUME PRESSAVG GPRESSAVG
ENERGY: 33000 159.4220 501.1857 479.1424 33.1072 -97411.4007 8373.2920 0.0000 0.0000 15438.0705 -72427.1809 296.5017 -87865.2513 -72388.4833 296.5794 -189.0248 -148.3071 256473.6171 -202.2674 -202.2696
TCL: namdcph) Proposal rejected.
TCL: Running for 500 steps without repeating first step
TCL: namdcph) Proposal rejected.
TCL: Running for 500 steps without repeating first step
ETITLE: TS BOND ANGLE DIHED IMPRP ELECT VDW BOUNDARY MISC KINETIC TOTAL TEMP POTENTIAL TOTAL3 TEMPAVG PRESSURE GPRESSURE VOLUME PRESSAVG GPRESSAVG
ENERGY: 34000 140.6770 502.4823 487.3021 35.4563 -97339.5216 8286.2718 0.0000 0.0000 15461.1980 -72426.1340 296.9459 -87887.3320 -72391.3645 295.8831 -340.5947 -301.3537 256473.6171 -175.8841 -175.8270
TCL: namdcph) Proposal rejected.
TCL: Running for 500 steps without repeating first step
TCL: namdcph) Proposal rejected.
TCL: Running for 500 steps without repeating first step
ETITLE: TS BOND ANGLE DIHED IMPRP ELECT VDW BOUNDARY MISC KINETIC TOTAL TEMP POTENTIAL TOTAL3 TEMPAVG PRESSURE GPRESSURE VOLUME PRESSAVG GPRESSAVG
ENERGY: 35000 167.9656 484.8064 477.3440 26.4173 -97349.5803 8421.5097 0.0000 0.0000 15416.2313 -72355.3060 296.0823 -87771.5373 -72311.9764 296.4135 -181.7227 -147.7843 256473.6171 -182.5951 -182.6131
TCL: namdcph) Proposal rejected.
TCL: Running for 500 steps without repeating first step
TCL: namdcph) Proposal rejected.
TCL: Running for 500 steps without repeating first step
ETITLE: TS BOND ANGLE DIHED IMPRP ELECT VDW BOUNDARY MISC KINETIC TOTAL TEMP POTENTIAL TOTAL3 TEMPAVG PRESSURE GPRESSURE VOLUME PRESSAVG GPRESSAVG
ENERGY: 36000 166.9457 498.0161 470.7925 37.6276 -97487.3462 8504.5545 0.0000 0.0000 15447.9149 -72361.4948 296.6908 -87809.4098 -72324.5733 296.7684 -279.0720 -239.3844 256473.6171 -123.3282 -123.2360
TCL: namdcph) Proposal rejected.
TCL: Running for 500 steps without repeating first step
TCL: namdcph) Proposal accepted, attemping a switch.
TCL: Setting parameter outputEnergies to 75000
TCL: Setting parameter dcdFreq to 0
TCL: Setting parameter firstTimestep to 0
TCL: Setting parameter alch to on
Info: NONBONDED TABLE R-SQUARED SPACING: 0.0625
Info: NONBONDED TABLE SIZE: 769 POINTS
TCL: Writing to files with basename 4/namdcph.md.
TCL: cphpsfgen) creating new alchemical side chain for PP1:950:ASP
TCL: Reloading molecular structure from file 4/namdcph.sw.psf and pdb file 4/namdcph.sw.pdb
Info: READING EXTRA BONDS FILE 4/namdcph.sw.extrabonds
Info: READ 8 EXTRA BONDS
Info: To read alchdata from file: coordinate pdb file (default)
Info: To read alchflag data from column: 5
Info: LONG-RANGE LJ: APPLYING ANALYTICAL CORRECTIONS TO ENERGY AND PRESSURE
Info: LONG-RANGE LJ: AVERAGE A0 AND B0 COEFFICIENTS 70974.7 AND 74.5945
Info: LONG-RANGE LJ: AVERAGE A1 AND B1 COEFFICIENTS 70974 AND 74.5925
Info: STRUCTURE SUMMARY:
Info: 25972 ATOMS
Info: 17583 BONDS
Info: 9931 ANGLES
Info: 2301 DIHEDRALS
Info: 178 IMPROPERS
Info: 54 CROSSTERMS
Info: 0 EXCLUSIONS
Info: 25493 RIGID BONDS
Info: ALCH: 8 ATOMS TO DISAPPEAR IN FINAL STATE
Info: ALCH: 8 ATOMS TO APPEAR IN FINAL STATE
Info: ALCH: 6 DIHEDRALS LINKING INITIAL AND FINAL ATOMS DELETED
Info: 52423 DEGREES OF FREEDOM
Info: 8828 HYDROGEN GROUPS
Info: 4 ATOMS IN LARGEST HYDROGEN GROUP
Info: 8828 MIGRATION GROUPS
Info: 4 ATOMS IN LARGEST MIGRATION GROUP
Info: TOTAL MASS = 157991 amu
Info: TOTAL CHARGE = 2 e
Info: MASS DENSITY = 1.02294 g/cm^3
Info: ATOM DENSITY = 0.101266 atoms/A^3
Info: ADDED 29796 IMPLICIT EXCLUSIONS
Info: NONBONDED TABLE R-SQUARED SPACING: 0.0625
Info: NONBONDED TABLE SIZE: 769 POINTS
TCL: Reinitializing atom data from files with basename 4/namdcph.sw
Info: REMOVING COM VELOCITY -0.0685879 0.0317548 0.0314558
TCL: Running for 75000 steps
Info: NONBONDED TABLE R-SQUARED SPACING: 0.0625
Info: NONBONDED TABLE SIZE: 769 POINTS
Info: READING EXTRA BONDS FILE 4/namdcph.sw.extrabonds
Info: LONG-RANGE LJ: APPLYING ANALYTICAL CORRECTIONS TO ENERGY AND PRESSURE
Info: LONG-RANGE LJ: AVERAGE A AND B COEFFICIENTS 70974.7 AND 74.5945
Info: STRUCTURE SUMMARY:
Info: 25964 ATOMS
Info: 17567 BONDS
Info: 9917 ANGLES
Info: 2278 DIHEDRALS
Info: 177 IMPROPERS
Info: 54 CROSSTERMS
Info: 0 EXCLUSIONS
Info: 25489 RIGID BONDS
Info: 52403 DEGREES OF FREEDOM
Info: 8824 HYDROGEN GROUPS
Info: 4 ATOMS IN LARGEST HYDROGEN GROUP
Info: 8824 MIGRATION GROUPS
Info: 4 ATOMS IN LARGEST MIGRATION GROUP
Info: TOTAL MASS = 157931 amu
Info: TOTAL CHARGE = 2 e
Info: MASS DENSITY = 1.02255 g/cm^3
Info: ATOM DENSITY = 0.101235 atoms/A^3
Info: ADDED 29751 IMPLICIT EXCLUSIONS
Info: NONBONDED TABLE R-SQUARED SPACING: 0.0625
Info: NONBONDED TABLE SIZE: 769 POINTS
Info: REMOVING COM VELOCITY -0.0678426 0.0319564 0.0305983
Info: NONBONDED TABLE R-SQUARED SPACING: 0.0625
Info: NONBONDED TABLE SIZE: 769 POINTS
Info: READING EXTRA BONDS FILE 4/namdcph.sw.extrabonds
Info: READ 8 EXTRA BONDS
Info: To read alchdata from file: coordinate pdb file (default)
Info: To read alchflag data from column: 5
Info: LONG-RANGE LJ: APPLYING ANALYTICAL CORRECTIONS TO ENERGY AND PRESSURE
Info: LONG-RANGE LJ: AVERAGE A0 AND B0 COEFFICIENTS 70974.7 AND 74.5945
Info: LONG-RANGE LJ: AVERAGE A1 AND B1 COEFFICIENTS 70974 AND 74.5925
Info: STRUCTURE SUMMARY:
Info: 25972 ATOMS
Info: 17583 BONDS
Info: 9931 ANGLES
Info: 2301 DIHEDRALS
Info: 178 IMPROPERS
Info: 54 CROSSTERMS
Info: 0 EXCLUSIONS
Info: 25493 RIGID BONDS
Info: ALCH: 8 ATOMS TO DISAPPEAR IN FINAL STATE
Info: ALCH: 8 ATOMS TO APPEAR IN FINAL STATE
Info: ALCH: 6 DIHEDRALS LINKING INITIAL AND FINAL ATOMS DELETED
Info: 52423 DEGREES OF FREEDOM
Info: 8828 HYDROGEN GROUPS
Info: 4 ATOMS IN LARGEST HYDROGEN GROUP
Info: 8828 MIGRATION GROUPS
Info: 4 ATOMS IN LARGEST MIGRATION GROUP
Info: TOTAL MASS = 157991 amu
Info: TOTAL CHARGE = 2 e
Info: MASS DENSITY = 1.02294 g/cm^3
Info: ATOM DENSITY = 0.101266 atoms/A^3
Info: ADDED 29796 IMPLICIT EXCLUSIONS
Info: NONBONDED TABLE R-SQUARED SPACING: 0.0625
Info: NONBONDED TABLE SIZE: 769 POINTS
Info: REMOVING COM VELOCITY -0.0271911 0.00968093 0.0454779
Info: NONBONDED TABLE R-SQUARED SPACING: 0.0625
Info: NONBONDED TABLE SIZE: 769 POINTS
Info: READING EXTRA BONDS FILE 4/namdcph.sw.extrabonds
Info: LONG-RANGE LJ: APPLYING ANALYTICAL CORRECTIONS TO ENERGY AND PRESSURE
Info: LONG-RANGE LJ: AVERAGE A AND B COEFFICIENTS 70974.7 AND 74.5945
Info: STRUCTURE SUMMARY:
Info: 25964 ATOMS
Info: 17567 BONDS
Info: 9917 ANGLES
Info: 2278 DIHEDRALS
Info: 177 IMPROPERS
Info: 54 CROSSTERMS
Info: 0 EXCLUSIONS
Info: 25489 RIGID BONDS
Info: 52403 DEGREES OF FREEDOM
Info: 8824 HYDROGEN GROUPS
Info: 4 ATOMS IN LARGEST HYDROGEN GROUP
Info: 8824 MIGRATION GROUPS
Info: 4 ATOMS IN LARGEST MIGRATION GROUP
Info: TOTAL MASS = 157931 amu
Info: TOTAL CHARGE = 2 e
Info: MASS DENSITY = 1.02255 g/cm^3
Info: ATOM DENSITY = 0.101235 atoms/A^3
Info: ADDED 29751 IMPLICIT EXCLUSIONS
Info: NONBONDED TABLE R-SQUARED SPACING: 0.0625
Info: NONBONDED TABLE SIZE: 769 POINTS
Info: REMOVING COM VELOCITY -0.0270722 0.00903869 0.0452713
Info: NONBONDED TABLE R-SQUARED SPACING: 0.0625
Info: NONBONDED TABLE SIZE: 769 POINTS
Info: READING EXTRA BONDS FILE 4/namdcph.sw.extrabonds
Info: READ 8 EXTRA BONDS
Info: To read alchdata from file: coordinate pdb file (default)
Info: To read alchflag data from column: 5
Info: LONG-RANGE LJ: APPLYING ANALYTICAL CORRECTIONS TO ENERGY AND PRESSURE
Info: LONG-RANGE LJ: AVERAGE A0 AND B0 COEFFICIENTS 70974.7 AND 74.5945
Info: LONG-RANGE LJ: AVERAGE A1 AND B1 COEFFICIENTS 70974 AND 74.5925
Info: STRUCTURE SUMMARY:
Info: 25972 ATOMS
Info: 17583 BONDS
Info: 9931 ANGLES
Info: 2301 DIHEDRALS
Info: 178 IMPROPERS
Info: 54 CROSSTERMS
Info: 0 EXCLUSIONS
Info: 25493 RIGID BONDS
Info: ALCH: 8 ATOMS TO DISAPPEAR IN FINAL STATE
Info: ALCH: 8 ATOMS TO APPEAR IN FINAL STATE
Info: ALCH: 6 DIHEDRALS LINKING INITIAL AND FINAL ATOMS DELETED
Info: 52423 DEGREES OF FREEDOM
Info: 8828 HYDROGEN GROUPS
Info: 4 ATOMS IN LARGEST HYDROGEN GROUP
Info: 8828 MIGRATION GROUPS
Info: 4 ATOMS IN LARGEST MIGRATION GROUP
Info: TOTAL MASS = 157991 amu
Info: TOTAL CHARGE = 2 e
Info: MASS DENSITY = 1.02294 g/cm^3
Info: ATOM DENSITY = 0.101266 atoms/A^3
Info: ADDED 29796 IMPLICIT EXCLUSIONS
Info: NONBONDED TABLE R-SQUARED SPACING: 0.0625
Info: NONBONDED TABLE SIZE: 769 POINTS
Info: REMOVING COM VELOCITY -0.0221492 -0.044008 -0.0735902
Info: NONBONDED TABLE R-SQUARED SPACING: 0.0625
Info: NONBONDED TABLE SIZE: 769 POINTS
Info: READING EXTRA BONDS FILE 4/namdcph.sw.extrabonds
Info: LONG-RANGE LJ: APPLYING ANALYTICAL CORRECTIONS TO ENERGY AND PRESSURE
Info: LONG-RANGE LJ: AVERAGE A AND B COEFFICIENTS 70974.7 AND 74.5945
Info: STRUCTURE SUMMARY:
Info: 25964 ATOMS
Info: 17567 BONDS
Info: 9917 ANGLES
Info: 2278 DIHEDRALS
Info: 177 IMPROPERS
Info: 54 CROSSTERMS
Info: 0 EXCLUSIONS
Info: 25489 RIGID BONDS
Info: 52403 DEGREES OF FREEDOM
Info: 8824 HYDROGEN GROUPS
Info: 4 ATOMS IN LARGEST HYDROGEN GROUP
Info: 8824 MIGRATION GROUPS
Info: 4 ATOMS IN LARGEST MIGRATION GROUP
Info: TOTAL MASS = 157931 amu
Info: TOTAL CHARGE = 2 e
Info: MASS DENSITY = 1.02255 g/cm^3
Info: ATOM DENSITY = 0.101235 atoms/A^3
Info: ADDED 29751 IMPLICIT EXCLUSIONS
Info: NONBONDED TABLE R-SQUARED SPACING: 0.0625
Info: NONBONDED TABLE SIZE: 769 POINTS
Info: REMOVING COM VELOCITY -0.0228749 -0.0429588 -0.0748077
Info: NONBONDED TABLE R-SQUARED SPACING: 0.0625
Info: NONBONDED TABLE SIZE: 769 POINTS
Info: READING EXTRA BONDS FILE 4/namdcph.sw.extrabonds
Info: READ 8 EXTRA BONDS
Info: To read alchdata from file: coordinate pdb file (default)
Info: To read alchflag data from column: 5
Info: LONG-RANGE LJ: APPLYING ANALYTICAL CORRECTIONS TO ENERGY AND PRESSURE
Info: LONG-RANGE LJ: AVERAGE A0 AND B0 COEFFICIENTS 70974.7 AND 74.5945
Info: LONG-RANGE LJ: AVERAGE A1 AND B1 COEFFICIENTS 70974 AND 74.5925
Info: STRUCTURE SUMMARY:
Info: 25972 ATOMS
Info: 17583 BONDS
Info: 9931 ANGLES
Info: 2301 DIHEDRALS
Info: 178 IMPROPERS
Info: 54 CROSSTERMS
Info: 0 EXCLUSIONS
Info: 25493 RIGID BONDS
Info: ALCH: 8 ATOMS TO DISAPPEAR IN FINAL STATE
Info: ALCH: 8 ATOMS TO APPEAR IN FINAL STATE
Info: ALCH: 6 DIHEDRALS LINKING INITIAL AND FINAL ATOMS DELETED
Info: 52423 DEGREES OF FREEDOM
Info: 8828 HYDROGEN GROUPS
Info: 4 ATOMS IN LARGEST HYDROGEN GROUP
Info: 8828 MIGRATION GROUPS
Info: 4 ATOMS IN LARGEST MIGRATION GROUP
Info: TOTAL MASS = 157991 amu
Info: TOTAL CHARGE = 2 e
Info: MASS DENSITY = 1.02294 g/cm^3
Info: ATOM DENSITY = 0.101266 atoms/A^3
Info: ADDED 29796 IMPLICIT EXCLUSIONS
Info: NONBONDED TABLE R-SQUARED SPACING: 0.0625
Info: NONBONDED TABLE SIZE: 769 POINTS
Info: REMOVING COM VELOCITY 0.0224259 0.0503731 -0.0105764
Info: NONBONDED TABLE R-SQUARED SPACING: 0.0625
Info: NONBONDED TABLE SIZE: 769 POINTS
Info: READING EXTRA BONDS FILE 4/namdcph.sw.extrabonds
Info: LONG-RANGE LJ: APPLYING ANALYTICAL CORRECTIONS TO ENERGY AND PRESSURE
Info: LONG-RANGE LJ: AVERAGE A AND B COEFFICIENTS 70974.7 AND 74.5945
Info: STRUCTURE SUMMARY:
Info: 25964 ATOMS
Info: 17567 BONDS
Info: 9917 ANGLES
Info: 2278 DIHEDRALS
Info: 177 IMPROPERS
Info: 54 CROSSTERMS
Info: 0 EXCLUSIONS
Info: 25489 RIGID BONDS
Info: 52403 DEGREES OF FREEDOM
Info: 8824 HYDROGEN GROUPS
Info: 4 ATOMS IN LARGEST HYDROGEN GROUP
Info: 8824 MIGRATION GROUPS
Info: 4 ATOMS IN LARGEST MIGRATION GROUP
Info: TOTAL MASS = 157931 amu
Info: TOTAL CHARGE = 2 e
Info: MASS DENSITY = 1.02255 g/cm^3
Info: ATOM DENSITY = 0.101235 atoms/A^3
Info: ADDED 29751 IMPLICIT EXCLUSIONS
Info: NONBONDED TABLE R-SQUARED SPACING: 0.0625
Info: NONBONDED TABLE SIZE: 769 POINTS
Info: REMOVING COM VELOCITY 0.0218162 0.0497446 -0.0104338
Info: NONBONDED TABLE R-SQUARED SPACING: 0.0625
Info: NONBONDED TABLE SIZE: 769 POINTS
Info: READING EXTRA BONDS FILE 4/namdcph.sw.extrabonds
Info: READ 8 EXTRA BONDS
Info: To read alchdata from file: coordinate pdb file (default)
Info: To read alchflag data from column: 5
Info: LONG-RANGE LJ: APPLYING ANALYTICAL CORRECTIONS TO ENERGY AND PRESSURE
Info: LONG-RANGE LJ: AVERAGE A0 AND B0 COEFFICIENTS 70974.7 AND 74.5945
Info: LONG-RANGE LJ: AVERAGE A1 AND B1 COEFFICIENTS 70974 AND 74.5925
Info: STRUCTURE SUMMARY:
Info: 25972 ATOMS
Info: 17583 BONDS
Info: 9931 ANGLES
Info: 2301 DIHEDRALS
Info: 178 IMPROPERS
Info: 54 CROSSTERMS
Info: 0 EXCLUSIONS
Info: 25493 RIGID BONDS
Info: ALCH: 8 ATOMS TO DISAPPEAR IN FINAL STATE
Info: ALCH: 8 ATOMS TO APPEAR IN FINAL STATE
Info: ALCH: 6 DIHEDRALS LINKING INITIAL AND FINAL ATOMS DELETED
Info: 52423 DEGREES OF FREEDOM
Info: 8828 HYDROGEN GROUPS
Info: 4 ATOMS IN LARGEST HYDROGEN GROUP
Info: 8828 MIGRATION GROUPS
Info: 4 ATOMS IN LARGEST MIGRATION GROUP
Info: TOTAL MASS = 157991 amu
Info: TOTAL CHARGE = 2 e
Info: MASS DENSITY = 1.02294 g/cm^3
Info: ATOM DENSITY = 0.101266 atoms/A^3
Info: ADDED 29796 IMPLICIT EXCLUSIONS
Info: NONBONDED TABLE R-SQUARED SPACING: 0.0625
Info: NONBONDED TABLE SIZE: 769 POINTS
Info: REMOVING COM VELOCITY 0.0314789 -0.0526081 -0.0226974
Info: NONBONDED TABLE R-SQUARED SPACING: 0.0625
Info: NONBONDED TABLE SIZE: 769 POINTS
Info: READING EXTRA BONDS FILE 4/namdcph.sw.extrabonds
Info: LONG-RANGE LJ: APPLYING ANALYTICAL CORRECTIONS TO ENERGY AND PRESSURE
Info: LONG-RANGE LJ: AVERAGE A AND B COEFFICIENTS 70974.7 AND 74.5945
Info: STRUCTURE SUMMARY:
Info: 25964 ATOMS
Info: 17567 BONDS
Info: 9917 ANGLES
Info: 2278 DIHEDRALS
Info: 177 IMPROPERS
Info: 54 CROSSTERMS
Info: 0 EXCLUSIONS
Info: 25489 RIGID BONDS
Info: 52403 DEGREES OF FREEDOM
Info: 8824 HYDROGEN GROUPS
Info: 4 ATOMS IN LARGEST HYDROGEN GROUP
Info: 8824 MIGRATION GROUPS
Info: 4 ATOMS IN LARGEST MIGRATION GROUP
Info: TOTAL MASS = 157931 amu
Info: TOTAL CHARGE = 2 e
Info: MASS DENSITY = 1.02255 g/cm^3
Info: ATOM DENSITY = 0.101235 atoms/A^3
Info: ADDED 29751 IMPLICIT EXCLUSIONS
Info: NONBONDED TABLE R-SQUARED SPACING: 0.0625
Info: NONBONDED TABLE SIZE: 769 POINTS
Info: REMOVING COM VELOCITY 0.0299651 -0.0524927 -0.0236231
Info: NONBONDED TABLE R-SQUARED SPACING: 0.0625
Info: NONBONDED TABLE SIZE: 769 POINTS
Info: READING EXTRA BONDS FILE 4/namdcph.sw.extrabonds
Info: READ 8 EXTRA BONDS
Info: To read alchdata from file: coordinate pdb file (default)
Info: To read alchflag data from column: 5
Info: LONG-RANGE LJ: APPLYING ANALYTICAL CORRECTIONS TO ENERGY AND PRESSURE
Info: LONG-RANGE LJ: AVERAGE A0 AND B0 COEFFICIENTS 70974.7 AND 74.5945
Info: LONG-RANGE LJ: AVERAGE A1 AND B1 COEFFICIENTS 70974 AND 74.5925
Info: STRUCTURE SUMMARY:
Info: 25972 ATOMS
Info: 17583 BONDS
Info: 9931 ANGLES
Info: 2301 DIHEDRALS
Info: 178 IMPROPERS
Info: 54 CROSSTERMS
Info: 0 EXCLUSIONS
Info: 25493 RIGID BONDS
Info: ALCH: 8 ATOMS TO DISAPPEAR IN FINAL STATE
Info: ALCH: 8 ATOMS TO APPEAR IN FINAL STATE
Info: ALCH: 6 DIHEDRALS LINKING INITIAL AND FINAL ATOMS DELETED
Info: 52423 DEGREES OF FREEDOM
Info: 8828 HYDROGEN GROUPS
Info: 4 ATOMS IN LARGEST HYDROGEN GROUP
Info: 8828 MIGRATION GROUPS
Info: 4 ATOMS IN LARGEST MIGRATION GROUP
Info: TOTAL MASS = 157991 amu
Info: TOTAL CHARGE = 2 e
Info: MASS DENSITY = 1.02294 g/cm^3
Info: ATOM DENSITY = 0.101266 atoms/A^3
Info: ADDED 29796 IMPLICIT EXCLUSIONS
Info: NONBONDED TABLE R-SQUARED SPACING: 0.0625
Info: NONBONDED TABLE SIZE: 769 POINTS
Info: REMOVING COM VELOCITY -0.069403 0.0233647 0.00820724
Info: NONBONDED TABLE R-SQUARED SPACING: 0.0625
Info: NONBONDED TABLE SIZE: 769 POINTS
Info: READING EXTRA BONDS FILE 4/namdcph.sw.extrabonds
Info: LONG-RANGE LJ: APPLYING ANALYTICAL CORRECTIONS TO ENERGY AND PRESSURE
Info: LONG-RANGE LJ: AVERAGE A AND B COEFFICIENTS 70974 AND 74.5925
Info: STRUCTURE SUMMARY:
Info: 25964 ATOMS
Info: 17567 BONDS
Info: 9917 ANGLES
Info: 2278 DIHEDRALS
Info: 177 IMPROPERS
Info: 54 CROSSTERMS
Info: 0 EXCLUSIONS
Info: 25489 RIGID BONDS
Info: 52403 DEGREES OF FREEDOM
Info: 8824 HYDROGEN GROUPS
Info: 4 ATOMS IN LARGEST HYDROGEN GROUP
Info: 8824 MIGRATION GROUPS
Info: 4 ATOMS IN LARGEST MIGRATION GROUP
Info: TOTAL MASS = 157931 amu
Info: TOTAL CHARGE = 3 e
Info: MASS DENSITY = 1.02255 g/cm^3
Info: ATOM DENSITY = 0.101235 atoms/A^3
Info: ADDED 29751 IMPLICIT EXCLUSIONS
Info: NONBONDED TABLE R-SQUARED SPACING: 0.0625
Info: NONBONDED TABLE SIZE: 769 POINTS
Info: REMOVING COM VELOCITY -0.0157636 -0.0330827 -0.0606414
Info: NONBONDED TABLE R-SQUARED SPACING: 0.0625
Info: NONBONDED TABLE SIZE: 769 POINTS
Info: READING EXTRA BONDS FILE 4/namdcph.sw.extrabonds
Info: READ 8 EXTRA BONDS
Info: To read alchdata from file: coordinate pdb file (default)
Info: To read alchflag data from column: 5
Info: LONG-RANGE LJ: APPLYING ANALYTICAL CORRECTIONS TO ENERGY AND PRESSURE
Info: LONG-RANGE LJ: AVERAGE A0 AND B0 COEFFICIENTS 70974 AND 74.5925
Info: LONG-RANGE LJ: AVERAGE A1 AND B1 COEFFICIENTS 70974.7 AND 74.5945
Info: STRUCTURE SUMMARY:
Info: 25972 ATOMS
Info: 17583 BONDS
Info: 9931 ANGLES
Info: 2300 DIHEDRALS
Info: 178 IMPROPERS
Info: 54 CROSSTERMS
Info: 0 EXCLUSIONS
Info: 25493 RIGID BONDS
Info: ALCH: 8 ATOMS TO DISAPPEAR IN FINAL STATE
Info: ALCH: 8 ATOMS TO APPEAR IN FINAL STATE
Info: ALCH: 6 DIHEDRALS LINKING INITIAL AND FINAL ATOMS DELETED
Info: 52423 DEGREES OF FREEDOM
Info: 8828 HYDROGEN GROUPS
Info: 4 ATOMS IN LARGEST HYDROGEN GROUP
Info: 8828 MIGRATION GROUPS
Info: 4 ATOMS IN LARGEST MIGRATION GROUP
Info: TOTAL MASS = 157991 amu
Info: TOTAL CHARGE = 2 e
Info: MASS DENSITY = 1.02294 g/cm^3
Info: ATOM DENSITY = 0.101266 atoms/A^3
Info: ADDED 29795 IMPLICIT EXCLUSIONS
Info: NONBONDED TABLE R-SQUARED SPACING: 0.0625
Info: NONBONDED TABLE SIZE: 769 POINTS
Info: REMOVING COM VELOCITY -0.0294968 -0.000214201 0.0239533
Info: NONBONDED TABLE R-SQUARED SPACING: 0.0625
Info: NONBONDED TABLE SIZE: 769 POINTS
Info: READING EXTRA BONDS FILE 4/namdcph.sw.extrabonds
Info: LONG-RANGE LJ: APPLYING ANALYTICAL CORRECTIONS TO ENERGY AND PRESSURE
Info: LONG-RANGE LJ: AVERAGE A AND B COEFFICIENTS 70974.7 AND 74.5945
Info: STRUCTURE SUMMARY:
Info: 25964 ATOMS
Info: 17567 BONDS
Info: 9917 ANGLES
Info: 2278 DIHEDRALS
Info: 177 IMPROPERS
Info: 54 CROSSTERMS
Info: 0 EXCLUSIONS
Info: 25489 RIGID BONDS
Info: 52403 DEGREES OF FREEDOM
Info: 8824 HYDROGEN GROUPS
Info: 4 ATOMS IN LARGEST HYDROGEN GROUP
Info: 8824 MIGRATION GROUPS
Info: 4 ATOMS IN LARGEST MIGRATION GROUP
Info: TOTAL MASS = 157931 amu
Info: TOTAL CHARGE = 2 e
Info: MASS DENSITY = 1.02255 g/cm^3
Info: ATOM DENSITY = 0.101235 atoms/A^3
Info: ADDED 29751 IMPLICIT EXCLUSIONS
Info: NONBONDED TABLE R-SQUARED SPACING: 0.0625
Info: NONBONDED TABLE SIZE: 769 POINTS
Info: REMOVING COM VELOCITY -0.00761506 -0.00401286 0.0228813
Info: NONBONDED TABLE R-SQUARED SPACING: 0.0625
Info: NONBONDED TABLE SIZE: 769 POINTS
Info: READING EXTRA BONDS FILE 4/namdcph.sw.extrabonds
Info: READ 8 EXTRA BONDS
Info: To read alchdata from file: coordinate pdb file (default)
Info: To read alchflag data from column: 5
Info: LONG-RANGE LJ: APPLYING ANALYTICAL CORRECTIONS TO ENERGY AND PRESSURE
Info: LONG-RANGE LJ: AVERAGE A0 AND B0 COEFFICIENTS 70974.7 AND 74.5945
Info: LONG-RANGE LJ: AVERAGE A1 AND B1 COEFFICIENTS 70974 AND 74.5925
Info: STRUCTURE SUMMARY:
Info: 25972 ATOMS
Info: 17583 BONDS
Info: 9931 ANGLES
Info: 2300 DIHEDRALS
Info: 178 IMPROPERS
Info: 54 CROSSTERMS
Info: 0 EXCLUSIONS
Info: 25493 RIGID BONDS
Info: ALCH: 8 ATOMS TO DISAPPEAR IN FINAL STATE
Info: ALCH: 8 ATOMS TO APPEAR IN FINAL STATE
Info: ALCH: 6 DIHEDRALS LINKING INITIAL AND FINAL ATOMS DELETED
Info: 52423 DEGREES OF FREEDOM
Info: 8828 HYDROGEN GROUPS
Info: 4 ATOMS IN LARGEST HYDROGEN GROUP
Info: 8828 MIGRATION GROUPS
Info: 4 ATOMS IN LARGEST MIGRATION GROUP
Info: TOTAL MASS = 157991 amu
Info: TOTAL CHARGE = 2 e
Info: MASS DENSITY = 1.02294 g/cm^3
Info: ATOM DENSITY = 0.101266 atoms/A^3
Info: ADDED 29795 IMPLICIT EXCLUSIONS
Info: NONBONDED TABLE R-SQUARED SPACING: 0.0625
Info: NONBONDED TABLE SIZE: 769 POINTS
Info: REMOVING COM VELOCITY 0.0144322 0.00841722 -0.00354209
Info: NONBONDED TABLE R-SQUARED SPACING: 0.0625
Info: NONBONDED TABLE SIZE: 769 POINTS
Info: READING EXTRA BONDS FILE 4/namdcph.sw.extrabonds
Info: LONG-RANGE LJ: APPLYING ANALYTICAL CORRECTIONS TO ENERGY AND PRESSURE
Info: LONG-RANGE LJ: AVERAGE A AND B COEFFICIENTS 70974.7 AND 74.5945
Info: STRUCTURE SUMMARY:
Info: 25964 ATOMS
Info: 17567 BONDS
Info: 9917 ANGLES
Info: 2278 DIHEDRALS
Info: 177 IMPROPERS
Info: 54 CROSSTERMS
Info: 0 EXCLUSIONS
Info: 25489 RIGID BONDS
Info: 52403 DEGREES OF FREEDOM
Info: 8824 HYDROGEN GROUPS
Info: 4 ATOMS IN LARGEST HYDROGEN GROUP
Info: 8824 MIGRATION GROUPS
Info: 4 ATOMS IN LARGEST MIGRATION GROUP
Info: TOTAL MASS = 157931 amu
Info: TOTAL CHARGE = 2 e
Info: MASS DENSITY = 1.02255 g/cm^3
Info: ATOM DENSITY = 0.101235 atoms/A^3
Info: ADDED 29751 IMPLICIT EXCLUSIONS
Info: NONBONDED TABLE R-SQUARED SPACING: 0.0625
Info: NONBONDED TABLE SIZE: 769 POINTS
Info: REMOVING COM VELOCITY 0.0154279 0.00801481 -0.00415307
Info: NONBONDED TABLE R-SQUARED SPACING: 0.0625
Info: NONBONDED TABLE SIZE: 769 POINTS
Info: READING EXTRA BONDS FILE 4/namdcph.sw.extrabonds
Info: READ 8 EXTRA BONDS
Info: To read alchdata from file: coordinate pdb file (default)
Info: To read alchflag data from column: 5
Info: LONG-RANGE LJ: APPLYING ANALYTICAL CORRECTIONS TO ENERGY AND PRESSURE
Info: LONG-RANGE LJ: AVERAGE A0 AND B0 COEFFICIENTS 70974.7 AND 74.5945
Info: LONG-RANGE LJ: AVERAGE A1 AND B1 COEFFICIENTS 70974 AND 74.5925
Info: STRUCTURE SUMMARY:
Info: 25972 ATOMS
Info: 17583 BONDS
Info: 9931 ANGLES
Info: 2300 DIHEDRALS
Info: 178 IMPROPERS
Info: 54 CROSSTERMS
Info: 0 EXCLUSIONS
Info: 25493 RIGID BONDS
Info: ALCH: 8 ATOMS TO DISAPPEAR IN FINAL STATE
Info: ALCH: 8 ATOMS TO APPEAR IN FINAL STATE
Info: ALCH: 6 DIHEDRALS LINKING INITIAL AND FINAL ATOMS DELETED
Info: 52423 DEGREES OF FREEDOM
Info: 8828 HYDROGEN GROUPS
Info: 4 ATOMS IN LARGEST HYDROGEN GROUP
Info: 8828 MIGRATION GROUPS
Info: 4 ATOMS IN LARGEST MIGRATION GROUP
Info: TOTAL MASS = 157991 amu
Info: TOTAL CHARGE = 2 e
Info: MASS DENSITY = 1.02294 g/cm^3
Info: ATOM DENSITY = 0.101266 atoms/A^3
Info: ADDED 29795 IMPLICIT EXCLUSIONS
Info: NONBONDED TABLE R-SQUARED SPACING: 0.0625
Info: NONBONDED TABLE SIZE: 769 POINTS
Info: REMOVING COM VELOCITY 0.0282325 0.0096529 -0.00058437
Info: NONBONDED TABLE R-SQUARED SPACING: 0.0625
Info: NONBONDED TABLE SIZE: 769 POINTS
Info: READING EXTRA BONDS FILE 4/namdcph.sw.extrabonds
Info: LONG-RANGE LJ: APPLYING ANALYTICAL CORRECTIONS TO ENERGY AND PRESSURE
Info: LONG-RANGE LJ: AVERAGE A AND B COEFFICIENTS 70974.7 AND 74.5945
Info: STRUCTURE SUMMARY:
Info: 25964 ATOMS
Info: 17567 BONDS
Info: 9917 ANGLES
Info: 2278 DIHEDRALS
Info: 177 IMPROPERS
Info: 54 CROSSTERMS
Info: 0 EXCLUSIONS
Info: 25489 RIGID BONDS
Info: 52403 DEGREES OF FREEDOM
Info: 8824 HYDROGEN GROUPS
Info: 4 ATOMS IN LARGEST HYDROGEN GROUP
Info: 8824 MIGRATION GROUPS
Info: 4 ATOMS IN LARGEST MIGRATION GROUP
Info: TOTAL MASS = 157931 amu
Info: TOTAL CHARGE = 2 e
Info: MASS DENSITY = 1.02255 g/cm^3
Info: ATOM DENSITY = 0.101235 atoms/A^3
Info: ADDED 29751 IMPLICIT EXCLUSIONS
Info: NONBONDED TABLE R-SQUARED SPACING: 0.0625
Info: NONBONDED TABLE SIZE: 769 POINTS
Info: REMOVING COM VELOCITY 0.0274858 0.00934451 8.83422e-05
Info: NONBONDED TABLE R-SQUARED SPACING: 0.0625
Info: NONBONDED TABLE SIZE: 769 POINTS
Info: READING EXTRA BONDS FILE 4/namdcph.sw.extrabonds
Info: READ 8 EXTRA BONDS
Info: To read alchdata from file: coordinate pdb file (default)
Info: To read alchflag data from column: 5
Info: LONG-RANGE LJ: APPLYING ANALYTICAL CORRECTIONS TO ENERGY AND PRESSURE
Info: LONG-RANGE LJ: AVERAGE A0 AND B0 COEFFICIENTS 70974.7 AND 74.5945
Info: LONG-RANGE LJ: AVERAGE A1 AND B1 COEFFICIENTS 70974 AND 74.5925
Info: STRUCTURE SUMMARY:
Info: 25972 ATOMS
Info: 17583 BONDS
Info: 9931 ANGLES
Info: 2300 DIHEDRALS
Info: 178 IMPROPERS
Info: 54 CROSSTERMS
Info: 0 EXCLUSIONS
Info: 25493 RIGID BONDS
Info: ALCH: 8 ATOMS TO DISAPPEAR IN FINAL STATE
Info: ALCH: 8 ATOMS TO APPEAR IN FINAL STATE
Info: ALCH: 6 DIHEDRALS LINKING INITIAL AND FINAL ATOMS DELETED
Info: 52423 DEGREES OF FREEDOM
Info: 8828 HYDROGEN GROUPS
Info: 4 ATOMS IN LARGEST HYDROGEN GROUP
Info: 8828 MIGRATION GROUPS
Info: 4 ATOMS IN LARGEST MIGRATION GROUP
Info: TOTAL MASS = 157991 amu
Info: TOTAL CHARGE = 2 e
Info: MASS DENSITY = 1.02294 g/cm^3
Info: ATOM DENSITY = 0.101266 atoms/A^3
Info: ADDED 29795 IMPLICIT EXCLUSIONS
Info: NONBONDED TABLE R-SQUARED SPACING: 0.0625
Info: NONBONDED TABLE SIZE: 769 POINTS
Info: REMOVING COM VELOCITY 0.0551949 0.0544507 0.0746719
Info: NONBONDED TABLE R-SQUARED SPACING: 0.0625
Info: NONBONDED TABLE SIZE: 769 POINTS
Info: READING EXTRA BONDS FILE 4/namdcph.sw.extrabonds
Info: LONG-RANGE LJ: APPLYING ANALYTICAL CORRECTIONS TO ENERGY AND PRESSURE
Info: LONG-RANGE LJ: AVERAGE A AND B COEFFICIENTS 70974.7 AND 74.5945
Info: STRUCTURE SUMMARY:
Info: 25964 ATOMS
Info: 17567 BONDS
Info: 9917 ANGLES
Info: 2278 DIHEDRALS
Info: 177 IMPROPERS
Info: 54 CROSSTERMS
Info: 0 EXCLUSIONS
Info: 25489 RIGID BONDS
Info: 52403 DEGREES OF FREEDOM
Info: 8824 HYDROGEN GROUPS
Info: 4 ATOMS IN LARGEST HYDROGEN GROUP
Info: 8824 MIGRATION GROUPS
Info: 4 ATOMS IN LARGEST MIGRATION GROUP
Info: TOTAL MASS = 157931 amu
Info: TOTAL CHARGE = 2 e
Info: MASS DENSITY = 1.02255 g/cm^3
Info: ATOM DENSITY = 0.101235 atoms/A^3
Info: ADDED 29751 IMPLICIT EXCLUSIONS
Info: NONBONDED TABLE R-SQUARED SPACING: 0.0625
Info: NONBONDED TABLE SIZE: 769 POINTS
Info: REMOVING COM VELOCITY 0.054913 0.0537927 0.0730446
Info: NONBONDED TABLE R-SQUARED SPACING: 0.0625
Info: NONBONDED TABLE SIZE: 769 POINTS
Info: READING EXTRA BONDS FILE 4/namdcph.sw.extrabonds
Info: READ 8 EXTRA BONDS
Info: To read alchdata from file: coordinate pdb file (default)
Info: To read alchflag data from column: 5
Info: LONG-RANGE LJ: APPLYING ANALYTICAL CORRECTIONS TO ENERGY AND PRESSURE
Info: LONG-RANGE LJ: AVERAGE A0 AND B0 COEFFICIENTS 70974.7 AND 74.5945
Info: LONG-RANGE LJ: AVERAGE A1 AND B1 COEFFICIENTS 70974 AND 74.5925
Info: STRUCTURE SUMMARY:
Info: 25972 ATOMS
Info: 17583 BONDS
Info: 9931 ANGLES
Info: 2300 DIHEDRALS
Info: 178 IMPROPERS
Info: 54 CROSSTERMS
Info: 0 EXCLUSIONS
Info: 25493 RIGID BONDS
Info: ALCH: 8 ATOMS TO DISAPPEAR IN FINAL STATE
Info: ALCH: 8 ATOMS TO APPEAR IN FINAL STATE
Info: ALCH: 6 DIHEDRALS LINKING INITIAL AND FINAL ATOMS DELETED
Info: 52423 DEGREES OF FREEDOM
Info: 8828 HYDROGEN GROUPS
Info: 4 ATOMS IN LARGEST HYDROGEN GROUP
Info: 8828 MIGRATION GROUPS
Info: 4 ATOMS IN LARGEST MIGRATION GROUP
Info: TOTAL MASS = 157991 amu
Info: TOTAL CHARGE = 2 e
Info: MASS DENSITY = 1.02294 g/cm^3
Info: ATOM DENSITY = 0.101266 atoms/A^3
Info: ADDED 29795 IMPLICIT EXCLUSIONS
Info: NONBONDED TABLE R-SQUARED SPACING: 0.0625
Info: NONBONDED TABLE SIZE: 769 POINTS
Info: REMOVING COM VELOCITY -0.000741032 -0.017958 -0.0212516
Info: NONBONDED TABLE R-SQUARED SPACING: 0.0625
Info: NONBONDED TABLE SIZE: 769 POINTS
Info: READING EXTRA BONDS FILE 4/namdcph.sw.extrabonds
Info: LONG-RANGE LJ: APPLYING ANALYTICAL CORRECTIONS TO ENERGY AND PRESSURE
Info: LONG-RANGE LJ: AVERAGE A AND B COEFFICIENTS 70974 AND 74.5925
Info: STRUCTURE SUMMARY:
Info: 25964 ATOMS
Info: 17567 BONDS
Info: 9917 ANGLES
Info: 2278 DIHEDRALS
Info: 177 IMPROPERS
Info: 54 CROSSTERMS
Info: 0 EXCLUSIONS
Info: 25489 RIGID BONDS
Info: 52403 DEGREES OF FREEDOM
Info: 8824 HYDROGEN GROUPS
Info: 4 ATOMS IN LARGEST HYDROGEN GROUP
Info: 8824 MIGRATION GROUPS
Info: 4 ATOMS IN LARGEST MIGRATION GROUP
Info: TOTAL MASS = 157931 amu
Info: TOTAL CHARGE = 3 e
Info: MASS DENSITY = 1.02255 g/cm^3
Info: ATOM DENSITY = 0.101235 atoms/A^3
Info: ADDED 29751 IMPLICIT EXCLUSIONS
Info: NONBONDED TABLE R-SQUARED SPACING: 0.0625
Info: NONBONDED TABLE SIZE: 769 POINTS
Info: REMOVING COM VELOCITY -0.00931545 0.05853 -0.0306508
Info: NONBONDED TABLE R-SQUARED SPACING: 0.0625
Info: NONBONDED TABLE SIZE: 769 POINTS
Info: READING EXTRA BONDS FILE 4/namdcph.sw.extrabonds
Info: READ 8 EXTRA BONDS
Info: To read alchdata from file: coordinate pdb file (default)
Info: To read alchflag data from column: 5
Info: LONG-RANGE LJ: APPLYING ANALYTICAL CORRECTIONS TO ENERGY AND PRESSURE
Info: LONG-RANGE LJ: AVERAGE A0 AND B0 COEFFICIENTS 70974 AND 74.5925
Info: LONG-RANGE LJ: AVERAGE A1 AND B1 COEFFICIENTS 70974.7 AND 74.5945
Info: STRUCTURE SUMMARY:
Info: 25972 ATOMS
Info: 17583 BONDS
Info: 9931 ANGLES
Info: 2301 DIHEDRALS
Info: 178 IMPROPERS
Info: 54 CROSSTERMS
Info: 0 EXCLUSIONS
Info: 25493 RIGID BONDS
Info: ALCH: 8 ATOMS TO DISAPPEAR IN FINAL STATE
Info: ALCH: 8 ATOMS TO APPEAR IN FINAL STATE
Info: ALCH: 6 DIHEDRALS LINKING INITIAL AND FINAL ATOMS DELETED
Info: 52423 DEGREES OF FREEDOM
Info: 8828 HYDROGEN GROUPS
Info: 4 ATOMS IN LARGEST HYDROGEN GROUP
Info: 8828 MIGRATION GROUPS
Info: 4 ATOMS IN LARGEST MIGRATION GROUP
Info: TOTAL MASS = 157991 amu
Info: TOTAL CHARGE = 2 e
Info: MASS DENSITY = 1.02294 g/cm^3
Info: ATOM DENSITY = 0.101266 atoms/A^3
Info: ADDED 29796 IMPLICIT EXCLUSIONS
Info: NONBONDED TABLE R-SQUARED SPACING: 0.0625
Info: NONBONDED TABLE SIZE: 769 POINTS
Info: REMOVING COM VELOCITY -0.0101924 -0.0592615 -0.102195
Info: NONBONDED TABLE R-SQUARED SPACING: 0.0625
Info: NONBONDED TABLE SIZE: 769 POINTS
Info: READING EXTRA BONDS FILE 4/namdcph.sw.extrabonds
Info: LONG-RANGE LJ: APPLYING ANALYTICAL CORRECTIONS TO ENERGY AND PRESSURE
Info: LONG-RANGE LJ: AVERAGE A AND B COEFFICIENTS 70974.7 AND 74.5945
Info: STRUCTURE SUMMARY:
Info: 25964 ATOMS
Info: 17567 BONDS
Info: 9917 ANGLES
Info: 2278 DIHEDRALS
Info: 177 IMPROPERS
Info: 54 CROSSTERMS
Info: 0 EXCLUSIONS
Info: 25489 RIGID BONDS
Info: 52403 DEGREES OF FREEDOM
Info: 8824 HYDROGEN GROUPS
Info: 4 ATOMS IN LARGEST HYDROGEN GROUP
Info: 8824 MIGRATION GROUPS
Info: 4 ATOMS IN LARGEST MIGRATION GROUP
Info: TOTAL MASS = 157931 amu
Info: TOTAL CHARGE = 2 e
Info: MASS DENSITY = 1.02255 g/cm^3
Info: ATOM DENSITY = 0.101235 atoms/A^3
Info: ADDED 29751 IMPLICIT EXCLUSIONS
Info: NONBONDED TABLE R-SQUARED SPACING: 0.0625
Info: NONBONDED TABLE SIZE: 769 POINTS
Info: REMOVING COM VELOCITY 0.0705949 0.0152607 0.0758472
Info: NONBONDED TABLE R-SQUARED SPACING: 0.0625
Info: NONBONDED TABLE SIZE: 769 POINTS
Info: READING EXTRA BONDS FILE 4/namdcph.sw.extrabonds
Info: READ 8 EXTRA BONDS
Info: To read alchdata from file: coordinate pdb file (default)
Info: To read alchflag data from column: 5
Info: LONG-RANGE LJ: APPLYING ANALYTICAL CORRECTIONS TO ENERGY AND PRESSURE
Info: LONG-RANGE LJ: AVERAGE A0 AND B0 COEFFICIENTS 70974.7 AND 74.5945
Info: LONG-RANGE LJ: AVERAGE A1 AND B1 COEFFICIENTS 70974 AND 74.5925
Info: STRUCTURE SUMMARY:
Info: 25972 ATOMS
Info: 17583 BONDS
Info: 9931 ANGLES
Info: 2301 DIHEDRALS
Info: 178 IMPROPERS
Info: 54 CROSSTERMS
Info: 0 EXCLUSIONS
Info: 25493 RIGID BONDS
Info: ALCH: 8 ATOMS TO DISAPPEAR IN FINAL STATE
Info: ALCH: 8 ATOMS TO APPEAR IN FINAL STATE
Info: ALCH: 6 DIHEDRALS LINKING INITIAL AND FINAL ATOMS DELETED
Info: 52423 DEGREES OF FREEDOM
Info: 8828 HYDROGEN GROUPS
Info: 4 ATOMS IN LARGEST HYDROGEN GROUP
Info: 8828 MIGRATION GROUPS
Info: 4 ATOMS IN LARGEST MIGRATION GROUP
Info: TOTAL MASS = 157991 amu
Info: TOTAL CHARGE = 2 e
Info: MASS DENSITY = 1.02294 g/cm^3
Info: ATOM DENSITY = 0.101266 atoms/A^3
Info: ADDED 29796 IMPLICIT EXCLUSIONS
Info: NONBONDED TABLE R-SQUARED SPACING: 0.0625
Info: NONBONDED TABLE SIZE: 769 POINTS
Info: REMOVING COM VELOCITY -0.0207598 0.00305547 -0.0209607
Info: NONBONDED TABLE R-SQUARED SPACING: 0.0625
Info: NONBONDED TABLE SIZE: 769 POINTS
Info: READING EXTRA BONDS FILE 4/namdcph.sw.extrabonds
Info: LONG-RANGE LJ: APPLYING ANALYTICAL CORRECTIONS TO ENERGY AND PRESSURE
Info: LONG-RANGE LJ: AVERAGE A AND B COEFFICIENTS 70974.7 AND 74.5945
Info: STRUCTURE SUMMARY:
Info: 25964 ATOMS
Info: 17567 BONDS
Info: 9917 ANGLES
Info: 2278 DIHEDRALS
Info: 177 IMPROPERS
Info: 54 CROSSTERMS
Info: 0 EXCLUSIONS
Info: 25489 RIGID BONDS
Info: 52403 DEGREES OF FREEDOM
Info: 8824 HYDROGEN GROUPS
Info: 4 ATOMS IN LARGEST HYDROGEN GROUP
Info: 8824 MIGRATION GROUPS
Info: 4 ATOMS IN LARGEST MIGRATION GROUP
Info: TOTAL MASS = 157931 amu
Info: TOTAL CHARGE = 2 e
Info: MASS DENSITY = 1.02255 g/cm^3
Info: ATOM DENSITY = 0.101235 atoms/A^3
Info: ADDED 29751 IMPLICIT EXCLUSIONS
Info: NONBONDED TABLE R-SQUARED SPACING: 0.0625
Info: NONBONDED TABLE SIZE: 769 POINTS
Info: REMOVING COM VELOCITY -0.0201628 0.0027567 -0.0201922
Info: NONBONDED TABLE R-SQUARED SPACING: 0.0625
Info: NONBONDED TABLE SIZE: 769 POINTS
Info: READING EXTRA BONDS FILE 4/namdcph.sw.extrabonds
Info: READ 8 EXTRA BONDS
Info: To read alchdata from file: coordinate pdb file (default)
Info: To read alchflag data from column: 5
Info: LONG-RANGE LJ: APPLYING ANALYTICAL CORRECTIONS TO ENERGY AND PRESSURE
Info: LONG-RANGE LJ: AVERAGE A0 AND B0 COEFFICIENTS 70974.7 AND 74.5945
Info: LONG-RANGE LJ: AVERAGE A1 AND B1 COEFFICIENTS 70974 AND 74.5925
Info: STRUCTURE SUMMARY:
Info: 25972 ATOMS
Info: 17583 BONDS
Info: 9931 ANGLES
Info: 2301 DIHEDRALS
Info: 178 IMPROPERS
Info: 54 CROSSTERMS
Info: 0 EXCLUSIONS
Info: 25493 RIGID BONDS
Info: ALCH: 8 ATOMS TO DISAPPEAR IN FINAL STATE
Info: ALCH: 8 ATOMS TO APPEAR IN FINAL STATE
Info: ALCH: 6 DIHEDRALS LINKING INITIAL AND FINAL ATOMS DELETED
Info: 52423 DEGREES OF FREEDOM
Info: 8828 HYDROGEN GROUPS
Info: 4 ATOMS IN LARGEST HYDROGEN GROUP
Info: 8828 MIGRATION GROUPS
Info: 4 ATOMS IN LARGEST MIGRATION GROUP
Info: TOTAL MASS = 157991 amu
Info: TOTAL CHARGE = 2 e
Info: MASS DENSITY = 1.02294 g/cm^3
Info: ATOM DENSITY = 0.101266 atoms/A^3
Info: ADDED 29796 IMPLICIT EXCLUSIONS
Info: NONBONDED TABLE R-SQUARED SPACING: 0.0625
Info: NONBONDED TABLE SIZE: 769 POINTS
Info: REMOVING COM VELOCITY 0.0269235 0.0289092 -0.0644295
Info: NONBONDED TABLE R-SQUARED SPACING: 0.0625
Info: NONBONDED TABLE SIZE: 769 POINTS
Info: READING EXTRA BONDS FILE 4/namdcph.sw.extrabonds
Info: LONG-RANGE LJ: APPLYING ANALYTICAL CORRECTIONS TO ENERGY AND PRESSURE
Info: LONG-RANGE LJ: AVERAGE A AND B COEFFICIENTS 70974.7 AND 74.5945
Info: STRUCTURE SUMMARY:
Info: 25964 ATOMS
Info: 17567 BONDS
Info: 9917 ANGLES
Info: 2278 DIHEDRALS
Info: 177 IMPROPERS
Info: 54 CROSSTERMS
Info: 0 EXCLUSIONS
Info: 25489 RIGID BONDS
Info: 52403 DEGREES OF FREEDOM
Info: 8824 HYDROGEN GROUPS
Info: 4 ATOMS IN LARGEST HYDROGEN GROUP
Info: 8824 MIGRATION GROUPS
Info: 4 ATOMS IN LARGEST MIGRATION GROUP
Info: TOTAL MASS = 157931 amu
Info: TOTAL CHARGE = 2 e
Info: MASS DENSITY = 1.02255 g/cm^3
Info: ATOM DENSITY = 0.101235 atoms/A^3
Info: ADDED 29751 IMPLICIT EXCLUSIONS
Info: NONBONDED TABLE R-SQUARED SPACING: 0.0625
Info: NONBONDED TABLE SIZE: 769 POINTS
Info: REMOVING COM VELOCITY 0.0266113 0.0283739 -0.0651228
Info: NONBONDED TABLE R-SQUARED SPACING: 0.0625
Info: NONBONDED TABLE SIZE: 769 POINTS
Info: READING EXTRA BONDS FILE 4/namdcph.sw.extrabonds
Info: READ 8 EXTRA BONDS
Info: To read alchdata from file: coordinate pdb file (default)
Info: To read alchflag data from column: 5
Info: LONG-RANGE LJ: APPLYING ANALYTICAL CORRECTIONS TO ENERGY AND PRESSURE
Info: LONG-RANGE LJ: AVERAGE A0 AND B0 COEFFICIENTS 70974.7 AND 74.5945
Info: LONG-RANGE LJ: AVERAGE A1 AND B1 COEFFICIENTS 70974 AND 74.5925
Info: STRUCTURE SUMMARY:
Info: 25972 ATOMS
Info: 17583 BONDS
Info: 9931 ANGLES
Info: 2301 DIHEDRALS
Info: 178 IMPROPERS
Info: 54 CROSSTERMS
Info: 0 EXCLUSIONS
Info: 25493 RIGID BONDS
Info: ALCH: 8 ATOMS TO DISAPPEAR IN FINAL STATE
Info: ALCH: 8 ATOMS TO APPEAR IN FINAL STATE
Info: ALCH: 6 DIHEDRALS LINKING INITIAL AND FINAL ATOMS DELETED
Info: 52423 DEGREES OF FREEDOM
Info: 8828 HYDROGEN GROUPS
Info: 4 ATOMS IN LARGEST HYDROGEN GROUP
Info: 8828 MIGRATION GROUPS
Info: 4 ATOMS IN LARGEST MIGRATION GROUP
Info: TOTAL MASS = 157991 amu
Info: TOTAL CHARGE = 2 e
Info: MASS DENSITY = 1.02294 g/cm^3
Info: ATOM DENSITY = 0.101266 atoms/A^3
Info: ADDED 29796 IMPLICIT EXCLUSIONS
Info: NONBONDED TABLE R-SQUARED SPACING: 0.0625
Info: NONBONDED TABLE SIZE: 769 POINTS
Info: REMOVING COM VELOCITY 0.0666147 -0.0011299 -0.0567487
Info: NONBONDED TABLE R-SQUARED SPACING: 0.0625
Info: NONBONDED TABLE SIZE: 769 POINTS
Info: READING EXTRA BONDS FILE 4/namdcph.sw.extrabonds
Info: LONG-RANGE LJ: APPLYING ANALYTICAL CORRECTIONS TO ENERGY AND PRESSURE
Info: LONG-RANGE LJ: AVERAGE A AND B COEFFICIENTS 70974.7 AND 74.5945
Info: STRUCTURE SUMMARY:
Info: 25964 ATOMS
Info: 17567 BONDS
Info: 9917 ANGLES
Info: 2278 DIHEDRALS
Info: 177 IMPROPERS
Info: 54 CROSSTERMS
Info: 0 EXCLUSIONS
Info: 25489 RIGID BONDS
Info: 52403 DEGREES OF FREEDOM
Info: 8824 HYDROGEN GROUPS
Info: 4 ATOMS IN LARGEST HYDROGEN GROUP
Info: 8824 MIGRATION GROUPS
Info: 4 ATOMS IN LARGEST MIGRATION GROUP
Info: TOTAL MASS = 157931 amu
Info: TOTAL CHARGE = 2 e
Info: MASS DENSITY = 1.02255 g/cm^3
Info: ATOM DENSITY = 0.101235 atoms/A^3
Info: ADDED 29751 IMPLICIT EXCLUSIONS
Info: NONBONDED TABLE R-SQUARED SPACING: 0.0625
Info: NONBONDED TABLE SIZE: 769 POINTS
Info: REMOVING COM VELOCITY 0.0671141 -0.00112197 -0.0562326
Info: NONBONDED TABLE R-SQUARED SPACING: 0.0625
Info: NONBONDED TABLE SIZE: 769 POINTS
Info: READING EXTRA BONDS FILE 4/namdcph.sw.extrabonds
Info: READ 8 EXTRA BONDS
Info: To read alchdata from file: coordinate pdb file (default)
Info: To read alchflag data from column: 5
Info: LONG-RANGE LJ: APPLYING ANALYTICAL CORRECTIONS TO ENERGY AND PRESSURE
Info: LONG-RANGE LJ: AVERAGE A0 AND B0 COEFFICIENTS 70974.7 AND 74.5945
Info: LONG-RANGE LJ: AVERAGE A1 AND B1 COEFFICIENTS 70974 AND 74.5925
Info: STRUCTURE SUMMARY:
Info: 25972 ATOMS
Info: 17583 BONDS
Info: 9931 ANGLES
Info: 2301 DIHEDRALS
Info: 178 IMPROPERS
Info: 54 CROSSTERMS
Info: 0 EXCLUSIONS
Info: 25493 RIGID BONDS
Info: ALCH: 8 ATOMS TO DISAPPEAR IN FINAL STATE
Info: ALCH: 8 ATOMS TO APPEAR IN FINAL STATE
Info: ALCH: 6 DIHEDRALS LINKING INITIAL AND FINAL ATOMS DELETED
Info: 52423 DEGREES OF FREEDOM
Info: 8828 HYDROGEN GROUPS
Info: 4 ATOMS IN LARGEST HYDROGEN GROUP
Info: 8828 MIGRATION GROUPS
Info: 4 ATOMS IN LARGEST MIGRATION GROUP
Info: TOTAL MASS = 157991 amu
Info: TOTAL CHARGE = 2 e
Info: MASS DENSITY = 1.02294 g/cm^3
Info: ATOM DENSITY = 0.101266 atoms/A^3
Info: ADDED 29796 IMPLICIT EXCLUSIONS
Info: NONBONDED TABLE R-SQUARED SPACING: 0.0625
Info: NONBONDED TABLE SIZE: 769 POINTS
Info: REMOVING COM VELOCITY -0.0574357 -0.0182827 0.017758
Info: NONBONDED TABLE R-SQUARED SPACING: 0.0625
Info: NONBONDED TABLE SIZE: 769 POINTS
Info: READING EXTRA BONDS FILE 4/namdcph.sw.extrabonds
Info: LONG-RANGE LJ: APPLYING ANALYTICAL CORRECTIONS TO ENERGY AND PRESSURE
Info: LONG-RANGE LJ: AVERAGE A AND B COEFFICIENTS 70974 AND 74.5925
Info: STRUCTURE SUMMARY:
Info: 25964 ATOMS
Info: 17567 BONDS
Info: 9917 ANGLES
Info: 2278 DIHEDRALS
Info: 177 IMPROPERS
Info: 54 CROSSTERMS
Info: 0 EXCLUSIONS
Info: 25489 RIGID BONDS
Info: 52403 DEGREES OF FREEDOM
Info: 8824 HYDROGEN GROUPS
Info: 4 ATOMS IN LARGEST HYDROGEN GROUP
Info: 8824 MIGRATION GROUPS
Info: 4 ATOMS IN LARGEST MIGRATION GROUP
Info: TOTAL MASS = 157931 amu
Info: TOTAL CHARGE = 3 e
Info: MASS DENSITY = 1.02255 g/cm^3
Info: ATOM DENSITY = 0.101235 atoms/A^3
Info: ADDED 29751 IMPLICIT EXCLUSIONS
Info: NONBONDED TABLE R-SQUARED SPACING: 0.0625
Info: NONBONDED TABLE SIZE: 769 POINTS
Info: REMOVING COM VELOCITY 0.0555739 -0.0558752 -0.0844055
