Info: SIMULATION PARAMETERS:
Info: TIMESTEP               2
Info: NUMBER OF STEPS        0
Info: STEPS PER CYCLE        20
Info: PERIODIC CELL BASIS 1  44.256 0 0
Info: PERIODIC CELL BASIS 2  0 55.2372 0
Info: PERIODIC CELL BASIS 3  0 0 104.307
Info: PERIODIC CELL CENTER   0.236852 0.455951 2.74095
Info: WRAPPING WATERS AROUND PERIODIC BOUNDARIES ON OUTPUT.
Info: WRAPPING ALL CLUSTERS AROUND PERIODIC BOUNDARIES ON OUTPUT.
Info: FIRST LDB TIMESTEP     100
Info: LAST LDB TIMESTEP     -1
Info: HOM BACKGROUND SCALING 1
Info: PME BACKGROUND SCALING 1
Info: MIN ATOMS PER PATCH    40
Info: INITIAL TEMPERATURE    298
Info: CENTER OF MASS MOVING INITIALLY? NO
Info: DIELECTRIC             1
Info: EXCLUDE                SCALED ONE-FOUR
Info: 1-4 ELECTROSTATICS SCALED BY 1
Info: MODIFIED 1-4 VDW PARAMETERS WILL BE USED
Info: DCD FILENAME           4/Pre4_0.dcd
Info: DCD FREQUENCY          1000
Info: DCD FIRST STEP         1000
Info: DCD FILE WILL CONTAIN UNIT CELL DATA
Info: NO EXTENDED SYSTEM TRAJECTORY OUTPUT
Info: NO VELOCITY DCD OUTPUT
Info: NO FORCE DCD OUTPUT
Info: OUTPUT FILENAME        4/Pre4_0
Info: BINARY OUTPUT FILES WILL BE USED
Info: NO RESTART FILE
Info: SWITCHING ACTIVE
Info: VDW FORCE SWITCHING ACTIVE
Info: SWITCHING ON           10
Info: SWITCHING OFF          12
Info: PAIRLIST DISTANCE      14
Info: PAIRLIST SHRINK RATE   0.01
Info: PAIRLIST GROW RATE     0.01
Info: PAIRLIST TRIGGER       0.3
Info: PAIRLISTS PER CYCLE    2
Info: PAIRLISTS ENABLED
Info: MARGIN                 2
Info: HYDROGEN GROUP CUTOFF  2.5
Info: PATCH DIMENSION        18.5
Info: ENERGY OUTPUT STEPS    1000
Info: CROSSTERM ENERGY INCLUDED IN DIHEDRAL
Info: TIMING OUTPUT STEPS    10000
Info: THERMODYNAMIC INTEGRATION (TI) ON
Info: TI LAMBDA VALUE     0
Info: TI INTRA-ALCHEMICAL NON-BONDED INTERACTIONS WILL BE DECOUPLED
Info: TI INTRA-ALCHEMICAL BONDED INTERACTIONS WILL BE DECOUPLED
Info: TI VDW SHIFTING COEFFICIENT 0
Info: TI ELEC. ACTIVE FOR ANNIHILATED PARTICLES BETWEEN LAMBDA = 0 AND LAMBDA = 1
Info: TI ELEC. ACTIVE FOR EXNIHILATED PARTICLES BETWEEN LAMBDA = 0 AND LAMBDA = 1
Info: TI VDW ACTIVE FOR ANNIHILATED PARTICLES BETWEEN LAMBDA = 0 AND LAMBDA = 1
Info: TI VDW ACTIVE FOR EXNIHILATED PARTICLES BETWEEN LAMBDA = 0 AND LAMBDA = 1
Info: TI BOND ACTIVE FOR ANNIHILATED PARTICLES BETWEEN LAMBDA = 0 AND LAMBDA = 1
Info: TI BOND ACTIVE FOR EXNIHILATED PARTICLES BETWEEN LAMBDA = 0 AND LAMBDA = 1
Info: LANGEVIN DYNAMICS ACTIVE
Info: LANGEVIN TEMPERATURE   298
Info: LANGEVIN USING BBK INTEGRATOR
Info: LANGEVIN DAMPING COEFFICIENT IS 1 INVERSE PS
Info: LANGEVIN DYNAMICS NOT APPLIED TO HYDROGENS
Info: PARTICLE MESH EWALD (PME) ACTIVE
Info: PME TOLERANCE               1e-06
Info: PME EWALD COEFFICIENT       0.257952
Info: PME INTERPOLATION ORDER     4
Info: PME GRID DIMENSIONS         48 56 108
Info: PME MAXIMUM GRID SPACING    1
Info: FULL ELECTROSTATIC EVALUATION FREQUENCY      2
Info: USING VERLET I (r-RESPA) MTS SCHEME.
Info: C1 SPLITTING OF LONG RANGE ELECTROSTATICS
Info: PLACING ATOMS IN PATCHES BY HYDROGEN GROUPS
Info: RIGID BONDS TO HYDROGEN : ALL
Info:         ERROR TOLERANCE : 1e-08
Info:          MAX ITERATIONS : 100
Info: RIGID WATER USING SETTLE ALGORITHM
Info: RANDOM NUMBER SEED     1688674569
Info: USE HYDROGEN BONDS?    NO
Info: COORDINATE PDB         ../topology/preD950N.pdb
Info: STRUCTURE FILE         ../topology/preD950N.psf
Info: PARAMETER file: CHARMM format!
Info: PARAMETERS             ../../toppar/par_all36_carb.prm
Info: PARAMETERS             ../../toppar/par_all36_cgenff.prm
Info: PARAMETERS             ../../toppar/par_all36_lipid.prm
Info: PARAMETERS             ../../toppar/par_all36_na.prm
Info: PARAMETERS             ../../toppar/par_all36_prot.prm
Info: PARAMETERS             ../../toppar/par_all36_solvent.prm
Info: PARAMETERS             ../../toppar/par_cph36_prot.prm
Info: PARAMETERS             ../../toppar/toppar_all36_carb_glycopeptide.str
Info: PARAMETERS             ../../toppar/toppar_water_ions_namd.str
Info: USING ARITHMETIC MEAN TO COMBINE L-J SIGMA PARAMETERS
Info: SKIPPING rtf SECTION IN STREAM FILE
Info: SKIPPING rtf SECTION IN STREAM FILE
Info: SUMMARY OF PARAMETERS:
Info: 925 BONDS
Info: 2696 ANGLES
Info: 6608 DIHEDRAL
Info: 195 IMPROPER
Info: 6 CROSSTERM
Info: 366 VDW
Info: 6 VDW_PAIRS
Info: 0 NBTHOLE_PAIRS
Info: READING EXTRA BONDS FILE 4/namdcph.sw.extrabonds
Info: To read alchdata from file: coordinate pdb file (default)
Info: To read alchflag data from column: 5
Info: LONG-RANGE LJ: APPLYING ANALYTICAL CORRECTIONS TO ENERGY AND PRESSURE
Info: LONG-RANGE LJ: AVERAGE A0 AND B0 COEFFICIENTS 70944.9 AND 74.5871
Info: LONG-RANGE LJ: AVERAGE A1 AND B1 COEFFICIENTS 70944.9 AND 74.5871
Info: STRUCTURE SUMMARY:
Info: 25807 ATOMS
Info: 17460 BONDS
Info: 9855 ANGLES
Info: 2254 DIHEDRALS
Info: 177 IMPROPERS
Info: 54 CROSSTERMS
Info: 0 EXCLUSIONS
Info: 25336 RIGID BONDS
Info: ALCH: 0 ATOMS TO DISAPPEAR IN FINAL STATE
Info: ALCH: 0 ATOMS TO APPEAR IN FINAL STATE
Info: 52085 DEGREES OF FREEDOM
Info: 8771 HYDROGEN GROUPS
Info: 4 ATOMS IN LARGEST HYDROGEN GROUP
Info: 8771 MIGRATION GROUPS
Info: 4 ATOMS IN LARGEST MIGRATION GROUP
Info: TOTAL MASS = 156962 amu
Info: TOTAL CHARGE = 4.35859e-07 e
Info: MASS DENSITY = 1.02219 g/cm^3
Info: ATOM DENSITY = 0.101209 atoms/A^3
Info: ADDED 29563 IMPLICIT EXCLUSIONS
Info: NONBONDED TABLE R-SQUARED SPACING: 0.0625
Info: NONBONDED TABLE SIZE: 769 POINTS
Info: REMOVING COM VELOCITY 0.00779877 -0.013647 -0.00188879
TCL: Setting parameter alchLambdaFreq to 1
Info: NONBONDED TABLE R-SQUARED SPACING: 0.0625
Info: NONBONDED TABLE SIZE: 769 POINTS
TCL: Setting parameter alch to off
Info: NONBONDED TABLE R-SQUARED SPACING: 0.0625
Info: NONBONDED TABLE SIZE: 769 POINTS
TCL: namdcph) initializing constant pH PSF...
TCL: WARNING! Building new atom PP1:918:HE1 with unknown mass.
TCL:          This may cause issues, for example, with mass repartitioning.
TCL: WARNING! Building new atom PP1:918:HE2 with unknown mass.
TCL:          This may cause issues, for example, with mass repartitioning.
TCL: WARNING! Building new atom PP1:936:HD1 with unknown mass.
TCL:          This may cause issues, for example, with mass repartitioning.
TCL: WARNING! Building new atom PP1:936:HD2 with unknown mass.
TCL:          This may cause issues, for example, with mass repartitioning.
TCL: cphpsfgen) creating new alchemical side chain for PP1:918:GLU
TCL: cphpsfgen) merging alchemical sidechains for PP1:918:GLU
TCL: cphpsfgen) creating new alchemical side chain for PP1:921:LYS
TCL: cphpsfgen) merging alchemical sidechains for PP1:921:LYS
TCL: cphpsfgen) creating new alchemical side chain for PP1:933:LYS
TCL: cphpsfgen) merging alchemical sidechains for PP1:933:LYS
TCL: cphpsfgen) creating new alchemical side chain for PP1:936:ASP
TCL: cphpsfgen) merging alchemical sidechains for PP1:936:ASP
TCL: cphpsfgen) creating new alchemical side chain for PP1:947:LYS
TCL: cphpsfgen) merging alchemical sidechains for PP1:947:LYS
TCL: cphpsfgen) creating new alchemical side chain for PP1:964:LYS
TCL: cphpsfgen) merging alchemical sidechains for PP1:964:LYS
TCL: namdcph) ***************************************
TCL: namdcph) CONSTANT pH MD ACTIVE
TCL: namdcph) SYSTEM pH 4
TCL: namdcph) CONSTANT pH CONFIGURATION FILE(S)
TCL: namdcph) ../../toppar/conf_cph36_prot.json
TCL: namdcph) NONEQUILIBRIUM SWITCH PARAMETERS:
TCL: namdcph) ALCHEMICAL FORCE CONSTANT 100.0 kcal/mol-A^2
TCL: namdcph) neMD/MC CRITERION TEMPERATURE 298.0
TCL: namdcph) TEMPORARY FILE INFORMATION:
TCL: namdcph) cpH TOPOLOGY FILE BASENAME 4/namdcph.md
TCL: namdcph) neMD/MC TRAJECTORY BASENAME 4/namdcph.sw
TCL: namdcph) ***************************************
TCL: namdcph) ***************************************
TCL: namdcph) TITRATABLE RESIDUE DEFINITIONS:
TCL: namdcph) HIS ASP GLU CYS LYS
TCL: namdcph) TITRATABLE SYSTEM SUMMARY:
TCL: namdcph) 6 RESIDUE(S)
TCL: namdcph) 16 PROTONATION SITE(S)
TCL: namdcph) ***************************************
TCL: namdcph) segid:resid:resname : state : pKai
TCL: namdcph) PP1:918:GLU         :     2 : 5.90
TCL: namdcph) PP1:921:LYS         :     P : 9.77
TCL: namdcph) PP1:933:LYS         :     P : 9.54
TCL: namdcph) PP1:936:ASP         :     2 : 5.26
TCL: namdcph) PP1:947:LYS         :     P : 9.83
TCL: namdcph) PP1:964:LYS         :     P : 9.68
TCL: namdcph) ***************************************
TCL: namdcph) *************************************************
TCL: namdcph) CONSTANT pH neMD/MC MOVES:
TCL: namdcph) MAX. ATTEMPTS PER CYCLE: 1
TCL: namdcph) ONE RESIDUE MOVES
TCL: namdcph) move label     : numsteps   weight
TCL: namdcph) PP1:918:GLU    :    75000     1.00
TCL: namdcph) PP1:921:LYS    :    75000     1.00
TCL: namdcph) PP1:933:LYS    :    75000     1.00
TCL: namdcph) PP1:936:ASP    :    75000     1.00
TCL: namdcph) PP1:947:LYS    :    75000     1.00
TCL: namdcph) PP1:964:LYS    :    75000     1.00
TCL: namdcph) *************************************************
TCL: namdcph) clearing extraBondsFile 4/namdcph.sw.extrabonds
TCL: Reloading molecular structure from file 4/namdcph.md.psf and pdb file 4/namdcph.md.pdb
Info: READING EXTRA BONDS FILE 4/namdcph.sw.extrabonds
Info: LONG-RANGE LJ: APPLYING ANALYTICAL CORRECTIONS TO ENERGY AND PRESSURE
Info: LONG-RANGE LJ: AVERAGE A AND B COEFFICIENTS 70943.4 AND 74.5831
Info: STRUCTURE SUMMARY:
Info: 25811 ATOMS
Info: 17464 BONDS
Info: 9859 ANGLES
Info: 2262 DIHEDRALS
Info: 177 IMPROPERS
Info: 54 CROSSTERMS
Info: 0 EXCLUSIONS
Info: 25340 RIGID BONDS
Info: 52093 DEGREES OF FREEDOM
Info: 8771 HYDROGEN GROUPS
Info: 4 ATOMS IN LARGEST HYDROGEN GROUP
Info: 8771 MIGRATION GROUPS
Info: 4 ATOMS IN LARGEST MIGRATION GROUP
Info: TOTAL MASS = 156966 amu
Info: TOTAL CHARGE = 2 e
Info: MASS DENSITY = 1.02222 g/cm^3
Info: ATOM DENSITY = 0.101224 atoms/A^3
Info: ADDED 29579 IMPLICIT EXCLUSIONS
Info: NONBONDED TABLE R-SQUARED SPACING: 0.0625
Info: NONBONDED TABLE SIZE: 769 POINTS
TCL: Reinitializing atom data from files with basename 4/namdcph.md
Info: REMOVING COM VELOCITY -0.00146064 -0.00162358 -0.00140498
TCL: Minimizing for 300 steps
ETITLE: TS BOND ANGLE DIHED IMPRP ELECT VDW BOUNDARY MISC KINETIC TOTAL TEMP POTENTIAL TOTAL3 TEMPAVG PRESSURE GPRESSURE VOLUME PRESSAVG GPRESSAVG
ENERGY: 0 62.4934 105.4706 437.8753 0.5632 -79818.6164 99999999999.9999 0.0000 0.0000 0.0000 99999999999.9999 0.0000 99999999999.9999 99999999999.9999 0.0000 99999999999.9999 99999999999.9999 254987.8783 99999999999.9999 99999999999.9999
ENERGY: 60 179.6124 170.0003 429.7782 7.7621 -92746.9274 12463.6260 0.0000 0.0000 0.0000 -79496.1485 0.0000 -79496.1485 -79496.1485 0.0000 25089.0764 6823.7488 254987.8783 25089.0764 6823.7488
ENERGY: 120 105.3344 195.1088 432.9094 23.1339 -98028.4746 9944.1647 0.0000 0.0000 0.0000 -87327.8234 0.0000 -87327.8234 -87327.8234 0.0000 21463.3323 2206.6592 254987.8783 21463.3323 2206.6592
ENERGY: 180 59.0462 161.7180 430.9191 8.6628 -99683.8226 9402.5575 0.0000 0.0000 0.0000 -89620.9190 0.0000 -89620.9190 -89620.9190 0.0000 20651.4842 1046.8740 254987.8783 20651.4842 1046.8740
ENERGY: 240 156.7544 209.2568 433.7190 48.4961 -102660.6875 8822.1980 0.0000 0.0000 0.0000 -92990.2632 0.0000 -92990.2632 -92990.2632 0.0000 19696.4049 19621.4509 254987.8783 19696.4049 19621.4509
ENERGY: 300 63.0743 178.2261 425.4595 13.2246 -105444.6805 8798.5515 0.0000 0.0000 0.0000 -95966.1444 0.0000 -95966.1444 -95966.1444 0.0000 19394.4644 19216.4144 254987.8783 19394.4644 19216.4144
TCL: Setting parameter firstTimeStep to 0
TCL: Running for 500 steps
ETITLE: TS BOND ANGLE DIHED IMPRP ELECT VDW BOUNDARY MISC KINETIC TOTAL TEMP POTENTIAL TOTAL3 TEMPAVG PRESSURE GPRESSURE VOLUME PRESSAVG GPRESSAVG
ENERGY: 0 63.0743 178.2261 425.4595 13.2246 -105444.6805 8798.5515 0.0000 0.0000 15571.3271 -80394.8173 300.8407 -95966.1444 -80408.8668 300.8407 -2765.0121 -2702.9638 254987.8783 -2765.0121 -2702.9638
TCL: namdcph) Proposal rejected.
TCL: Running for 500 steps without repeating first step
ETITLE: TS BOND ANGLE DIHED IMPRP ELECT VDW BOUNDARY MISC KINETIC TOTAL TEMP POTENTIAL TOTAL3 TEMPAVG PRESSURE GPRESSURE VOLUME PRESSAVG GPRESSAVG
ENERGY: 1000 158.1885 457.4224 482.9744 26.3130 -100377.8218 9152.8439 0.0000 0.0000 13648.3925 -76451.6872 263.6893 -90100.0797 -76424.9995 245.6265 -521.4759 -486.2363 254987.8783 -403.2525 -403.3066
TCL: namdcph) Proposal rejected.
TCL: Running for 500 steps without repeating first step
TCL: namdcph) Proposal rejected.
TCL: Running for 500 steps without repeating first step
ETITLE: TS BOND ANGLE DIHED IMPRP ELECT VDW BOUNDARY MISC KINETIC TOTAL TEMP POTENTIAL TOTAL3 TEMPAVG PRESSURE GPRESSURE VOLUME PRESSAVG GPRESSAVG
ENERGY: 2000 186.4629 487.3128 468.9821 24.1052 -98778.8799 8668.9075 0.0000 0.0000 14360.9900 -74582.1193 277.4568 -88943.1093 -74550.6971 272.5279 -742.8167 -704.8713 254987.8783 -452.3138 -452.4194
TCL: namdcph) Proposal rejected.
TCL: Running for 500 steps without repeating first step
TCL: namdcph) Proposal rejected.
TCL: Running for 500 steps without repeating first step
ETITLE: TS BOND ANGLE DIHED IMPRP ELECT VDW BOUNDARY MISC KINETIC TOTAL TEMP POTENTIAL TOTAL3 TEMPAVG PRESSURE GPRESSURE VOLUME PRESSAVG GPRESSAVG
ENERGY: 3000 147.6335 467.2886 468.9932 37.3499 -98405.6179 8848.6593 0.0000 0.0000 15005.5525 -73430.1409 289.9099 -88435.6934 -73386.5510 283.4259 -152.8255 -124.9920 254987.8783 -383.3642 -383.3870
TCL: namdcph) Proposal rejected.
TCL: Running for 500 steps without repeating first step
TCL: namdcph) Proposal rejected.
TCL: Running for 500 steps without repeating first step
ETITLE: TS BOND ANGLE DIHED IMPRP ELECT VDW BOUNDARY MISC KINETIC TOTAL TEMP POTENTIAL TOTAL3 TEMPAVG PRESSURE GPRESSURE VOLUME PRESSAVG GPRESSAVG
ENERGY: 4000 167.2544 481.3237 470.3488 30.3771 -97360.5409 8499.6225 0.0000 0.0000 15088.0683 -72623.5460 291.5041 -87711.6144 -72590.4979 287.8474 -310.5036 -270.8423 254987.8783 -352.7536 -352.7205
TCL: namdcph) Proposal rejected.
TCL: Running for 500 steps without repeating first step
TCL: namdcph) Proposal rejected.
TCL: Running for 500 steps without repeating first step
ETITLE: TS BOND ANGLE DIHED IMPRP ELECT VDW BOUNDARY MISC KINETIC TOTAL TEMP POTENTIAL TOTAL3 TEMPAVG PRESSURE GPRESSURE VOLUME PRESSAVG GPRESSAVG
ENERGY: 5000 161.3741 514.5992 459.0706 28.2878 -97050.7343 8568.0876 0.0000 0.0000 15319.9017 -71999.4133 295.9832 -87319.3150 -71968.3172 292.1959 -137.9230 -99.0613 254987.8783 -303.5111 -303.5859
TCL: namdcph) Proposal rejected.
TCL: Running for 500 steps without repeating first step
TCL: namdcph) Proposal rejected.
TCL: Running for 500 steps without repeating first step
ETITLE: TS BOND ANGLE DIHED IMPRP ELECT VDW BOUNDARY MISC KINETIC TOTAL TEMP POTENTIAL TOTAL3 TEMPAVG PRESSURE GPRESSURE VOLUME PRESSAVG GPRESSAVG
ENERGY: 6000 163.7129 508.9036 478.2940 33.5616 -96900.0024 8403.4244 0.0000 0.0000 15353.0722 -71959.0337 296.6240 -87312.1059 -71922.5520 295.5334 -365.4835 -323.0308 254987.8783 -259.6407 -259.5756
TCL: namdcph) Proposal rejected.
TCL: Running for 500 steps without repeating first step
TCL: namdcph) Proposal rejected.
TCL: Running for 500 steps without repeating first step
ETITLE: TS BOND ANGLE DIHED IMPRP ELECT VDW BOUNDARY MISC KINETIC TOTAL TEMP POTENTIAL TOTAL3 TEMPAVG PRESSURE GPRESSURE VOLUME PRESSAVG GPRESSAVG
ENERGY: 7000 157.6678 488.4945 474.6939 31.5829 -96854.4767 8421.6750 0.0000 0.0000 15276.9734 -72003.3893 295.1538 -87280.3627 -71960.7550 295.8841 -109.4694 -79.8999 254987.8783 -213.5009 -213.6563
TCL: namdcph) Proposal rejected.
TCL: Running for 500 steps without repeating first step
TCL: namdcph) Proposal rejected.
TCL: Running for 500 steps without repeating first step
ETITLE: TS BOND ANGLE DIHED IMPRP ELECT VDW BOUNDARY MISC KINETIC TOTAL TEMP POTENTIAL TOTAL3 TEMPAVG PRESSURE GPRESSURE VOLUME PRESSAVG GPRESSAVG
ENERGY: 8000 163.7914 507.6854 477.4446 41.0623 -96573.7646 8240.2554 0.0000 0.0000 15352.5850 -71790.9406 296.6146 -87143.5256 -71753.1521 295.7810 -379.5613 -348.6473 254987.8783 -214.4589 -214.4643
TCL: namdcph) Proposal rejected.
TCL: Running for 500 steps without repeating first step
TCL: namdcph) Proposal rejected.
TCL: Running for 500 steps without repeating first step
ETITLE: TS BOND ANGLE DIHED IMPRP ELECT VDW BOUNDARY MISC KINETIC TOTAL TEMP POTENTIAL TOTAL3 TEMPAVG PRESSURE GPRESSURE VOLUME PRESSAVG GPRESSAVG
ENERGY: 9000 157.5195 480.7285 468.2420 33.1857 -96690.8890 8389.4414 0.0000 0.0000 15526.2168 -71635.5552 299.9692 -87161.7720 -71595.8048 297.0172 -206.5659 -169.7477 254987.8783 -130.9414 -131.0045
TCL: namdcph) Proposal rejected.
TCL: Running for 500 steps without repeating first step
TCL: namdcph) Proposal rejected.
TCL: Running for 500 steps without repeating first step
ETITLE: TS BOND ANGLE DIHED IMPRP ELECT VDW BOUNDARY MISC KINETIC TOTAL TEMP POTENTIAL TOTAL3 TEMPAVG PRESSURE GPRESSURE VOLUME PRESSAVG GPRESSAVG
ENERGY: 10000 148.8734 481.9982 480.5475 32.4513 -96468.4566 8465.1664 0.0000 0.0000 15385.6059 -71473.8138 297.2526 -86859.4198 -71437.9557 297.7151 3.3107 40.0451 254987.8783 -156.4630 -156.5508
TCL: namdcph) Proposal rejected.
TCL: Running for 500 steps without repeating first step
TCL: namdcph) Proposal rejected.
TCL: Running for 500 steps without repeating first step
ETITLE: TS BOND ANGLE DIHED IMPRP ELECT VDW BOUNDARY MISC KINETIC TOTAL TEMP POTENTIAL TOTAL3 TEMPAVG PRESSURE GPRESSURE VOLUME PRESSAVG GPRESSAVG
ENERGY: 11000 161.6309 468.8118 489.8784 33.0550 -96710.1688 8416.2227 0.0000 0.0000 15412.2281 -71728.3421 297.7669 -87140.5702 -71686.5213 297.9566 -210.5528 -175.9496 254987.8783 -199.1240 -199.0026
TCL: namdcph) Proposal rejected.
TCL: Running for 500 steps without repeating first step
TCL: namdcph) Proposal rejected.
TCL: Running for 500 steps without repeating first step
ETITLE: TS BOND ANGLE DIHED IMPRP ELECT VDW BOUNDARY MISC KINETIC TOTAL TEMP POTENTIAL TOTAL3 TEMPAVG PRESSURE GPRESSURE VOLUME PRESSAVG GPRESSAVG
ENERGY: 12000 154.5359 479.6047 461.1709 27.9751 -96423.3777 8259.4678 0.0000 0.0000 15358.4750 -71682.1483 296.7284 -87040.6233 -71642.2930 297.5737 -235.1502 -203.1182 254987.8783 -153.6793 -153.7731
TCL: namdcph) Proposal rejected.
TCL: Running for 500 steps without repeating first step
TCL: namdcph) Proposal rejected.
TCL: Running for 500 steps without repeating first step
ETITLE: TS BOND ANGLE DIHED IMPRP ELECT VDW BOUNDARY MISC KINETIC TOTAL TEMP POTENTIAL TOTAL3 TEMPAVG PRESSURE GPRESSURE VOLUME PRESSAVG GPRESSAVG
ENERGY: 13000 166.2541 443.9388 456.3787 32.2073 -96811.2077 8542.0309 0.0000 0.0000 15229.1349 -71941.2631 294.2295 -87170.3979 -71902.8558 295.9352 -204.7675 -168.0338 254987.8783 -256.4169 -256.4874
TCL: namdcph) Proposal rejected.
TCL: Running for 500 steps without repeating first step
TCL: namdcph) Proposal rejected.
TCL: Running for 500 steps without repeating first step
ETITLE: TS BOND ANGLE DIHED IMPRP ELECT VDW BOUNDARY MISC KINETIC TOTAL TEMP POTENTIAL TOTAL3 TEMPAVG PRESSURE GPRESSURE VOLUME PRESSAVG GPRESSAVG
ENERGY: 14000 155.9058 485.6361 475.3088 31.6775 -96394.6320 8319.5143 0.0000 0.0000 15216.1637 -71710.4258 293.9789 -86926.5895 -71676.5562 296.6232 -322.3326 -284.3030 254987.8783 -132.9024 -132.8418
TCL: namdcph) Proposal rejected.
TCL: Running for 500 steps without repeating first step
TCL: namdcph) Proposal rejected.
TCL: Running for 500 steps without repeating first step
ETITLE: TS BOND ANGLE DIHED IMPRP ELECT VDW BOUNDARY MISC KINETIC TOTAL TEMP POTENTIAL TOTAL3 TEMPAVG PRESSURE GPRESSURE VOLUME PRESSAVG GPRESSAVG
ENERGY: 15000 164.2670 500.5165 460.2086 35.6635 -96526.4614 8465.9003 0.0000 0.0000 15330.9862 -71568.9193 296.1973 -86899.9055 -71538.4270 296.8788 -38.6148 -4.4523 254987.8783 -228.9197 -229.0013
TCL: namdcph) Proposal rejected.
TCL: Running for 500 steps without repeating first step
TCL: namdcph) Proposal rejected.
TCL: Running for 500 steps without repeating first step
ETITLE: TS BOND ANGLE DIHED IMPRP ELECT VDW BOUNDARY MISC KINETIC TOTAL TEMP POTENTIAL TOTAL3 TEMPAVG PRESSURE GPRESSURE VOLUME PRESSAVG GPRESSAVG
ENERGY: 16000 162.1462 509.1214 470.3952 29.0969 -96560.0991 8161.4499 0.0000 0.0000 15293.1185 -71934.7710 295.4657 -87227.8894 -71899.8686 296.2144 -455.2545 -423.5725 254987.8783 -211.5857 -211.4807
TCL: namdcph) Proposal rejected.
TCL: Running for 500 steps without repeating first step
TCL: namdcph) Proposal rejected.
TCL: Running for 500 steps without repeating first step
ETITLE: TS BOND ANGLE DIHED IMPRP ELECT VDW BOUNDARY MISC KINETIC TOTAL TEMP POTENTIAL TOTAL3 TEMPAVG PRESSURE GPRESSURE VOLUME PRESSAVG GPRESSAVG
ENERGY: 17000 155.6384 474.0534 457.5908 35.8535 -96523.2607 8366.4969 0.0000 0.0000 15405.2523 -71628.3754 297.6321 -87033.6277 -71591.1812 296.4451 -229.5188 -195.3985 254987.8783 -187.0420 -186.9893
TCL: namdcph) Proposal rejected.
TCL: Running for 500 steps without repeating first step
TCL: namdcph) Proposal rejected.
TCL: Running for 500 steps without repeating first step
ETITLE: TS BOND ANGLE DIHED IMPRP ELECT VDW BOUNDARY MISC KINETIC TOTAL TEMP POTENTIAL TOTAL3 TEMPAVG PRESSURE GPRESSURE VOLUME PRESSAVG GPRESSAVG
ENERGY: 18000 155.5459 462.1720 465.0410 32.3693 -96799.3862 8436.8788 0.0000 0.0000 15449.4628 -71797.9165 298.4863 -87247.3793 -71762.1469 296.9418 -167.6119 -137.2464 254987.8783 -93.7676 -93.7910
TCL: namdcph) Proposal rejected.
TCL: Running for 500 steps without repeating first step
TCL: namdcph) Proposal rejected.
TCL: Running for 500 steps without repeating first step
ETITLE: TS BOND ANGLE DIHED IMPRP ELECT VDW BOUNDARY MISC KINETIC TOTAL TEMP POTENTIAL TOTAL3 TEMPAVG PRESSURE GPRESSURE VOLUME PRESSAVG GPRESSAVG
ENERGY: 19000 148.9432 500.1559 468.1039 28.8089 -96526.2309 8373.6495 0.0000 0.0000 15312.3165 -71694.2530 295.8366 -87006.5695 -71656.6783 296.4828 -168.4758 -134.2486 254987.8783 -180.7616 -180.7999
TCL: namdcph) Proposal rejected.
TCL: Running for 500 steps without repeating first step
TCL: namdcph) Proposal rejected.
TCL: Running for 500 steps without repeating first step
ETITLE: TS BOND ANGLE DIHED IMPRP ELECT VDW BOUNDARY MISC KINETIC TOTAL TEMP POTENTIAL TOTAL3 TEMPAVG PRESSURE GPRESSURE VOLUME PRESSAVG GPRESSAVG
ENERGY: 20000 150.0551 483.1030 468.4075 29.7144 -96687.4684 8478.3103 0.0000 0.0000 15476.5862 -71601.2920 299.0103 -87077.8781 -71565.0027 297.5279 -117.4163 -78.6612 254987.8783 -111.0402 -111.0921
TCL: namdcph) Proposal rejected.
TCL: Running for 500 steps without repeating first step
TCL: namdcph) Proposal rejected.
TCL: Running for 500 steps without repeating first step
ETITLE: TS BOND ANGLE DIHED IMPRP ELECT VDW BOUNDARY MISC KINETIC TOTAL TEMP POTENTIAL TOTAL3 TEMPAVG PRESSURE GPRESSURE VOLUME PRESSAVG GPRESSAVG
ENERGY: 21000 159.7143 523.2245 455.4752 28.9545 -96763.2924 8272.1924 0.0000 0.0000 15416.4073 -71907.3241 297.8477 -87323.7314 -71868.1931 296.3674 -351.9085 -323.8106 254987.8783 -113.9693 -114.0466
TCL: namdcph) Proposal rejected.
TCL: Running for 500 steps without repeating first step
TCL: namdcph) Proposal rejected.
TCL: Running for 500 steps without repeating first step
ETITLE: TS BOND ANGLE DIHED IMPRP ELECT VDW BOUNDARY MISC KINETIC TOTAL TEMP POTENTIAL TOTAL3 TEMPAVG PRESSURE GPRESSURE VOLUME PRESSAVG GPRESSAVG
ENERGY: 22000 170.1793 492.3861 474.6597 42.6184 -97000.4660 8596.8880 0.0000 0.0000 15510.1631 -71713.5713 299.6590 -87223.7344 -71672.4420 296.1857 -72.8857 -36.1989 254987.8783 -219.7354 -219.8262
TCL: namdcph) Proposal rejected.
TCL: Running for 500 steps without repeating first step
TCL: namdcph) Proposal rejected.
TCL: Running for 500 steps without repeating first step
ETITLE: TS BOND ANGLE DIHED IMPRP ELECT VDW BOUNDARY MISC KINETIC TOTAL TEMP POTENTIAL TOTAL3 TEMPAVG PRESSURE GPRESSURE VOLUME PRESSAVG GPRESSAVG
ENERGY: 23000 164.9594 497.0912 463.5046 24.8041 -96595.0176 8465.1941 0.0000 0.0000 15374.0611 -71605.4031 297.0295 -86979.4641 -71570.8085 297.8591 -116.5962 -87.1292 254987.8783 -156.0852 -156.1827
TCL: namdcph) Proposal rejected.
TCL: Running for 500 steps without repeating first step
TCL: namdcph) Proposal rejected.
TCL: Running for 500 steps without repeating first step
ETITLE: TS BOND ANGLE DIHED IMPRP ELECT VDW BOUNDARY MISC KINETIC TOTAL TEMP POTENTIAL TOTAL3 TEMPAVG PRESSURE GPRESSURE VOLUME PRESSAVG GPRESSAVG
ENERGY: 24000 177.0803 480.8377 478.2879 23.3892 -96598.4825 8291.5363 0.0000 0.0000 15489.2138 -71658.1372 299.2543 -87147.3510 -71621.3086 296.9916 -448.6766 -412.0067 254987.8783 -173.1834 -173.2581
TCL: namdcph) Proposal rejected.
TCL: Running for 500 steps without repeating first step
TCL: namdcph) Proposal rejected.
TCL: Running for 500 steps without repeating first step
ETITLE: TS BOND ANGLE DIHED IMPRP ELECT VDW BOUNDARY MISC KINETIC TOTAL TEMP POTENTIAL TOTAL3 TEMPAVG PRESSURE GPRESSURE VOLUME PRESSAVG GPRESSAVG
ENERGY: 25000 161.2644 479.7139 476.9286 31.5546 -96321.0589 8353.4572 0.0000 0.0000 15335.9732 -71482.1670 296.2937 -86818.1402 -71438.2344 297.4482 -201.5562 -169.2457 254987.8783 -166.7534 -166.7401
TCL: namdcph) Proposal rejected.
TCL: Running for 500 steps without repeating first step
TCL: namdcph) Proposal rejected.
TCL: Running for 500 steps without repeating first step
ETITLE: TS BOND ANGLE DIHED IMPRP ELECT VDW BOUNDARY MISC KINETIC TOTAL TEMP POTENTIAL TOTAL3 TEMPAVG PRESSURE GPRESSURE VOLUME PRESSAVG GPRESSAVG
ENERGY: 26000 168.4202 519.1783 459.3633 31.6011 -96228.5638 8309.2161 0.0000 0.0000 15609.5812 -71131.2034 301.5798 -86740.7846 -71096.5805 299.0648 -154.8857 -117.7361 254987.8783 -191.1345 -191.0812
TCL: namdcph) Proposal rejected.
TCL: Running for 500 steps without repeating first step
TCL: namdcph) Proposal rejected.
TCL: Running for 500 steps without repeating first step
ETITLE: TS BOND ANGLE DIHED IMPRP ELECT VDW BOUNDARY MISC KINETIC TOTAL TEMP POTENTIAL TOTAL3 TEMPAVG PRESSURE GPRESSURE VOLUME PRESSAVG GPRESSAVG
ENERGY: 27000 156.1943 500.0236 470.5687 33.5554 -96007.0650 8228.9399 0.0000 0.0000 15500.5696 -71117.2136 299.4737 -86617.7832 -71085.0156 300.4217 -178.8863 -143.3270 254987.8783 -235.3637 -235.3618
TCL: namdcph) Proposal rejected.
TCL: Running for 500 steps without repeating first step
TCL: namdcph) Proposal rejected.
TCL: Running for 500 steps without repeating first step
ETITLE: TS BOND ANGLE DIHED IMPRP ELECT VDW BOUNDARY MISC KINETIC TOTAL TEMP POTENTIAL TOTAL3 TEMPAVG PRESSURE GPRESSURE VOLUME PRESSAVG GPRESSAVG
ENERGY: 28000 163.8043 521.5730 466.2281 32.7616 -96280.1822 8269.5686 0.0000 0.0000 15549.2355 -71277.0111 300.4139 -86826.2466 -71234.9885 299.9456 -260.3282 -223.0631 254987.8783 -117.0921 -117.1767
TCL: namdcph) Proposal rejected.
TCL: Running for 500 steps without repeating first step
TCL: namdcph) Proposal rejected.
TCL: Running for 500 steps without repeating first step
ETITLE: TS BOND ANGLE DIHED IMPRP ELECT VDW BOUNDARY MISC KINETIC TOTAL TEMP POTENTIAL TOTAL3 TEMPAVG PRESSURE GPRESSURE VOLUME PRESSAVG GPRESSAVG
ENERGY: 29000 174.8204 490.0088 462.7205 32.3884 -96360.0520 8208.4342 0.0000 0.0000 15411.4199 -71580.2598 297.7513 -86991.6798 -71545.8698 298.5228 -420.8581 -386.9944 254987.8783 -177.3360 -177.3743
TCL: namdcph) Proposal rejected.
TCL: Running for 500 steps without repeating first step
TCL: namdcph) Proposal rejected.
TCL: Running for 500 steps without repeating first step
ETITLE: TS BOND ANGLE DIHED IMPRP ELECT VDW BOUNDARY MISC KINETIC TOTAL TEMP POTENTIAL TOTAL3 TEMPAVG PRESSURE GPRESSURE VOLUME PRESSAVG GPRESSAVG
ENERGY: 30000 162.5972 514.6062 460.9648 31.9044 -96718.8169 8330.8931 0.0000 0.0000 15505.4065 -71712.4447 299.5671 -87217.8512 -71677.1787 296.9098 -238.9584 -212.3917 254987.8783 -103.2206 -103.2114
TCL: namdcph) Proposal rejected.
TCL: Running for 500 steps without repeating first step
TCL: namdcph) Proposal rejected.
TCL: Running for 500 steps without repeating first step
ETITLE: TS BOND ANGLE DIHED IMPRP ELECT VDW BOUNDARY MISC KINETIC TOTAL TEMP POTENTIAL TOTAL3 TEMPAVG PRESSURE GPRESSURE VOLUME PRESSAVG GPRESSAVG
ENERGY: 31000 175.9564 533.3949 453.7312 33.7233 -96719.8503 8517.8806 0.0000 0.0000 15281.5585 -71723.6054 295.2424 -87005.1639 -71683.3551 296.6724 -105.6645 -73.9109 254987.8783 -186.5937 -186.5941
TCL: namdcph) Proposal rejected.
TCL: Running for 500 steps without repeating first step
TCL: namdcph) Proposal rejected.
TCL: Running for 500 steps without repeating first step
ETITLE: TS BOND ANGLE DIHED IMPRP ELECT VDW BOUNDARY MISC KINETIC TOTAL TEMP POTENTIAL TOTAL3 TEMPAVG PRESSURE GPRESSURE VOLUME PRESSAVG GPRESSAVG
ENERGY: 32000 174.3703 507.0639 459.7821 24.2187 -96680.1997 8364.8188 0.0000 0.0000 15254.6606 -71895.2852 294.7227 -87149.9459 -71862.2907 296.3688 -268.5751 -228.4855 254987.8783 -193.0214 -192.9526
TCL: namdcph) Proposal rejected.
TCL: Running for 500 steps without repeating first step
TCL: namdcph) Proposal rejected.
TCL: Running for 500 steps without repeating first step
ETITLE: TS BOND ANGLE DIHED IMPRP ELECT VDW BOUNDARY MISC KINETIC TOTAL TEMP POTENTIAL TOTAL3 TEMPAVG PRESSURE GPRESSURE VOLUME PRESSAVG GPRESSAVG
ENERGY: 33000 164.9357 506.1208 472.8367 29.8868 -96543.9107 8370.2176 0.0000 0.0000 15305.3417 -71694.5715 295.7019 -86999.9132 -71663.5029 295.8668 -202.6171 -169.6696 254987.8783 -213.2352 -213.3279
TCL: namdcph) Proposal rejected.
TCL: Running for 500 steps without repeating first step
TCL: namdcph) Proposal rejected.
TCL: Running for 500 steps without repeating first step
ETITLE: TS BOND ANGLE DIHED IMPRP ELECT VDW BOUNDARY MISC KINETIC TOTAL TEMP POTENTIAL TOTAL3 TEMPAVG PRESSURE GPRESSURE VOLUME PRESSAVG GPRESSAVG
ENERGY: 34000 147.5704 480.9346 456.9672 37.2145 -96343.7920 8327.0904 0.0000 0.0000 15410.0340 -71483.9810 297.7245 -86894.0150 -71446.4037 297.5937 -179.5056 -141.1897 254987.8783 -180.5617 -180.5941
TCL: namdcph) Proposal rejected.
TCL: Running for 500 steps without repeating first step
TCL: namdcph) Proposal rejected.
TCL: Running for 500 steps without repeating first step
ETITLE: TS BOND ANGLE DIHED IMPRP ELECT VDW BOUNDARY MISC KINETIC TOTAL TEMP POTENTIAL TOTAL3 TEMPAVG PRESSURE GPRESSURE VOLUME PRESSAVG GPRESSAVG
ENERGY: 35000 161.4687 509.0262 460.2781 32.6073 -96501.6407 8452.9144 0.0000 0.0000 15572.2181 -71313.1280 300.8580 -86885.3461 -71277.1951 298.3479 -19.8096 18.3856 254987.8783 -168.2156 -168.2326
TCL: namdcph) Proposal rejected.
TCL: Running for 500 steps without repeating first step
TCL: namdcph) Proposal rejected.
TCL: Running for 500 steps without repeating first step
ETITLE: TS BOND ANGLE DIHED IMPRP ELECT VDW BOUNDARY MISC KINETIC TOTAL TEMP POTENTIAL TOTAL3 TEMPAVG PRESSURE GPRESSURE VOLUME PRESSAVG GPRESSAVG
ENERGY: 36000 172.7429 491.8447 456.7145 31.3562 -96559.6552 8312.5176 0.0000 0.0000 15604.2078 -71490.2716 301.4760 -87094.4794 -71452.9397 299.0245 -244.1823 -208.9730 254987.8783 -160.2001 -160.1923
TCL: namdcph) Proposal rejected.
TCL: Running for 500 steps without repeating first step
TCL: namdcph) Proposal rejected.
TCL: Running for 500 steps without repeating first step
ETITLE: TS BOND ANGLE DIHED IMPRP ELECT VDW BOUNDARY MISC KINETIC TOTAL TEMP POTENTIAL TOTAL3 TEMPAVG PRESSURE GPRESSURE VOLUME PRESSAVG GPRESSAVG
ENERGY: 37000 157.0286 485.4313 475.5497 31.8716 -96177.5844 8177.3341 0.0000 0.0000 15445.6319 -71404.7372 298.4123 -86850.3691 -71366.9925 297.6496 -379.1654 -348.9117 254987.8783 -249.7864 -249.7681
TCL: namdcph) Proposal rejected.
TCL: Running for 500 steps without repeating first step
TCL: namdcph) Proposal rejected.
TCL: Running for 500 steps without repeating first step
ETITLE: TS BOND ANGLE DIHED IMPRP ELECT VDW BOUNDARY MISC KINETIC TOTAL TEMP POTENTIAL TOTAL3 TEMPAVG PRESSURE GPRESSURE VOLUME PRESSAVG GPRESSAVG
ENERGY: 38000 175.5397 469.2525 462.4040 27.3752 -96705.4818 8477.0519 0.0000 0.0000 15483.1745 -71610.6839 299.1376 -87093.8584 -71576.1086 297.6261 -109.5611 -83.9747 254987.8783 -203.0974 -203.0442
TCL: namdcph) Proposal rejected.
TCL: Running for 500 steps without repeating first step
TCL: namdcph) Proposal rejected.
TCL: Running for 500 steps without repeating first step
Info: NONBONDED TABLE R-SQUARED SPACING: 0.0625
Info: NONBONDED TABLE SIZE: 769 POINTS
Info: READING EXTRA BONDS FILE 4/namdcph.sw.extrabonds
Info: READ 8 EXTRA BONDS
Info: To read alchdata from file: coordinate pdb file (default)
Info: To read alchflag data from column: 5
Info: LONG-RANGE LJ: APPLYING ANALYTICAL CORRECTIONS TO ENERGY AND PRESSURE
Info: LONG-RANGE LJ: AVERAGE A0 AND B0 COEFFICIENTS 70943.4 AND 74.5831
Info: LONG-RANGE LJ: AVERAGE A1 AND B1 COEFFICIENTS 70944.2 AND 74.5851
Info: STRUCTURE SUMMARY:
Info: 25819 ATOMS
Info: 17480 BONDS
Info: 9873 ANGLES
Info: 2285 DIHEDRALS
Info: 178 IMPROPERS
Info: 54 CROSSTERMS
Info: 0 EXCLUSIONS
Info: 25344 RIGID BONDS
Info: ALCH: 8 ATOMS TO DISAPPEAR IN FINAL STATE
Info: ALCH: 8 ATOMS TO APPEAR IN FINAL STATE
Info: ALCH: 6 DIHEDRALS LINKING INITIAL AND FINAL ATOMS DELETED
Info: 52113 DEGREES OF FREEDOM
Info: 8775 HYDROGEN GROUPS
Info: 4 ATOMS IN LARGEST HYDROGEN GROUP
Info: 8775 MIGRATION GROUPS
Info: 4 ATOMS IN LARGEST MIGRATION GROUP
Info: TOTAL MASS = 157026 amu
Info: TOTAL CHARGE = 1 e
Info: MASS DENSITY = 1.02261 g/cm^3
Info: ATOM DENSITY = 0.101256 atoms/A^3
Info: ADDED 29624 IMPLICIT EXCLUSIONS
Info: NONBONDED TABLE R-SQUARED SPACING: 0.0625
Info: NONBONDED TABLE SIZE: 769 POINTS
Info: REMOVING COM VELOCITY 0.0489567 -0.108459 -0.0217344
Info: NONBONDED TABLE R-SQUARED SPACING: 0.0625
Info: NONBONDED TABLE SIZE: 769 POINTS
Info: READING EXTRA BONDS FILE 4/namdcph.sw.extrabonds
Info: LONG-RANGE LJ: APPLYING ANALYTICAL CORRECTIONS TO ENERGY AND PRESSURE
Info: LONG-RANGE LJ: AVERAGE A AND B COEFFICIENTS 70944.2 AND 74.5851
Info: STRUCTURE SUMMARY:
Info: 25811 ATOMS
Info: 17464 BONDS
Info: 9859 ANGLES
Info: 2262 DIHEDRALS
Info: 177 IMPROPERS
Info: 54 CROSSTERMS
Info: 0 EXCLUSIONS
Info: 25340 RIGID BONDS
Info: 52093 DEGREES OF FREEDOM
Info: 8771 HYDROGEN GROUPS
Info: 4 ATOMS IN LARGEST HYDROGEN GROUP
Info: 8771 MIGRATION GROUPS
Info: 4 ATOMS IN LARGEST MIGRATION GROUP
Info: TOTAL MASS = 156966 amu
Info: TOTAL CHARGE = 1 e
Info: MASS DENSITY = 1.02222 g/cm^3
Info: ATOM DENSITY = 0.101224 atoms/A^3
Info: ADDED 29579 IMPLICIT EXCLUSIONS
Info: NONBONDED TABLE R-SQUARED SPACING: 0.0625
Info: NONBONDED TABLE SIZE: 769 POINTS
Info: REMOVING COM VELOCITY 0.012614 0.0543159 -0.0198977
Info: NONBONDED TABLE R-SQUARED SPACING: 0.0625
Info: NONBONDED TABLE SIZE: 769 POINTS
Info: READING EXTRA BONDS FILE 4/namdcph.sw.extrabonds
Info: READ 8 EXTRA BONDS
Info: To read alchdata from file: coordinate pdb file (default)
Info: To read alchflag data from column: 5
Info: LONG-RANGE LJ: APPLYING ANALYTICAL CORRECTIONS TO ENERGY AND PRESSURE
Info: LONG-RANGE LJ: AVERAGE A0 AND B0 COEFFICIENTS 70944.2 AND 74.5851
Info: LONG-RANGE LJ: AVERAGE A1 AND B1 COEFFICIENTS 70943.4 AND 74.5831
Info: STRUCTURE SUMMARY:
Info: 25819 ATOMS
Info: 17480 BONDS
Info: 9873 ANGLES
Info: 2285 DIHEDRALS
Info: 178 IMPROPERS
Info: 54 CROSSTERMS
Info: 0 EXCLUSIONS
Info: 25344 RIGID BONDS
Info: ALCH: 8 ATOMS TO DISAPPEAR IN FINAL STATE
Info: ALCH: 8 ATOMS TO APPEAR IN FINAL STATE
Info: ALCH: 6 DIHEDRALS LINKING INITIAL AND FINAL ATOMS DELETED
Info: 52113 DEGREES OF FREEDOM
Info: 8775 HYDROGEN GROUPS
Info: 4 ATOMS IN LARGEST HYDROGEN GROUP
Info: 8775 MIGRATION GROUPS
Info: 4 ATOMS IN LARGEST MIGRATION GROUP
Info: TOTAL MASS = 157026 amu
Info: TOTAL CHARGE = 1 e
Info: MASS DENSITY = 1.02261 g/cm^3
Info: ATOM DENSITY = 0.101256 atoms/A^3
Info: ADDED 29624 IMPLICIT EXCLUSIONS
Info: NONBONDED TABLE R-SQUARED SPACING: 0.0625
Info: NONBONDED TABLE SIZE: 769 POINTS
Info: REMOVING COM VELOCITY 0.0263131 0.00359571 -0.0459919
Info: NONBONDED TABLE R-SQUARED SPACING: 0.0625
Info: NONBONDED TABLE SIZE: 769 POINTS
Info: READING EXTRA BONDS FILE 4/namdcph.sw.extrabonds
Info: LONG-RANGE LJ: APPLYING ANALYTICAL CORRECTIONS TO ENERGY AND PRESSURE
Info: LONG-RANGE LJ: AVERAGE A AND B COEFFICIENTS 70944.2 AND 74.5851
Info: STRUCTURE SUMMARY:
Info: 25811 ATOMS
Info: 17464 BONDS
Info: 9859 ANGLES
Info: 2262 DIHEDRALS
Info: 177 IMPROPERS
Info: 54 CROSSTERMS
Info: 0 EXCLUSIONS
Info: 25340 RIGID BONDS
Info: 52093 DEGREES OF FREEDOM
Info: 8771 HYDROGEN GROUPS
Info: 4 ATOMS IN LARGEST HYDROGEN GROUP
Info: 8771 MIGRATION GROUPS
Info: 4 ATOMS IN LARGEST MIGRATION GROUP
Info: TOTAL MASS = 156966 amu
Info: TOTAL CHARGE = 1 e
Info: MASS DENSITY = 1.02222 g/cm^3
Info: ATOM DENSITY = 0.101224 atoms/A^3
Info: ADDED 29579 IMPLICIT EXCLUSIONS
Info: NONBONDED TABLE R-SQUARED SPACING: 0.0625
Info: NONBONDED TABLE SIZE: 769 POINTS
Info: REMOVING COM VELOCITY 0.0259194 0.00367628 -0.0451706
Info: NONBONDED TABLE R-SQUARED SPACING: 0.0625
Info: NONBONDED TABLE SIZE: 769 POINTS
Info: READING EXTRA BONDS FILE 4/namdcph.sw.extrabonds
Info: READ 8 EXTRA BONDS
Info: To read alchdata from file: coordinate pdb file (default)
Info: To read alchflag data from column: 5
Info: LONG-RANGE LJ: APPLYING ANALYTICAL CORRECTIONS TO ENERGY AND PRESSURE
Info: LONG-RANGE LJ: AVERAGE A0 AND B0 COEFFICIENTS 70944.2 AND 74.5851
Info: LONG-RANGE LJ: AVERAGE A1 AND B1 COEFFICIENTS 70943.4 AND 74.5831
Info: STRUCTURE SUMMARY:
Info: 25819 ATOMS
Info: 17480 BONDS
Info: 9873 ANGLES
Info: 2285 DIHEDRALS
Info: 178 IMPROPERS
Info: 54 CROSSTERMS
Info: 0 EXCLUSIONS
Info: 25344 RIGID BONDS
Info: ALCH: 8 ATOMS TO DISAPPEAR IN FINAL STATE
Info: ALCH: 8 ATOMS TO APPEAR IN FINAL STATE
Info: ALCH: 6 DIHEDRALS LINKING INITIAL AND FINAL ATOMS DELETED
Info: 52113 DEGREES OF FREEDOM
Info: 8775 HYDROGEN GROUPS
Info: 4 ATOMS IN LARGEST HYDROGEN GROUP
Info: 8775 MIGRATION GROUPS
Info: 4 ATOMS IN LARGEST MIGRATION GROUP
Info: TOTAL MASS = 157026 amu
Info: TOTAL CHARGE = 1 e
Info: MASS DENSITY = 1.02261 g/cm^3
Info: ATOM DENSITY = 0.101256 atoms/A^3
Info: ADDED 29624 IMPLICIT EXCLUSIONS
Info: NONBONDED TABLE R-SQUARED SPACING: 0.0625
Info: NONBONDED TABLE SIZE: 769 POINTS
Info: REMOVING COM VELOCITY 0.0178909 -0.0499819 0.00684529
Info: NONBONDED TABLE R-SQUARED SPACING: 0.0625
Info: NONBONDED TABLE SIZE: 769 POINTS
Info: READING EXTRA BONDS FILE 4/namdcph.sw.extrabonds
Info: LONG-RANGE LJ: APPLYING ANALYTICAL CORRECTIONS TO ENERGY AND PRESSURE
Info: LONG-RANGE LJ: AVERAGE A AND B COEFFICIENTS 70944.2 AND 74.5851
Info: STRUCTURE SUMMARY:
Info: 25811 ATOMS
Info: 17464 BONDS
Info: 9859 ANGLES
Info: 2262 DIHEDRALS
Info: 177 IMPROPERS
Info: 54 CROSSTERMS
Info: 0 EXCLUSIONS
Info: 25340 RIGID BONDS
Info: 52093 DEGREES OF FREEDOM
Info: 8771 HYDROGEN GROUPS
Info: 4 ATOMS IN LARGEST HYDROGEN GROUP
Info: 8771 MIGRATION GROUPS
Info: 4 ATOMS IN LARGEST MIGRATION GROUP
Info: TOTAL MASS = 156966 amu
Info: TOTAL CHARGE = 1 e
Info: MASS DENSITY = 1.02222 g/cm^3
Info: ATOM DENSITY = 0.101224 atoms/A^3
Info: ADDED 29579 IMPLICIT EXCLUSIONS
Info: NONBONDED TABLE R-SQUARED SPACING: 0.0625
Info: NONBONDED TABLE SIZE: 769 POINTS
Info: REMOVING COM VELOCITY 0.0159902 -0.0498538 0.00667296
Info: NONBONDED TABLE R-SQUARED SPACING: 0.0625
Info: NONBONDED TABLE SIZE: 769 POINTS
Info: READING EXTRA BONDS FILE 4/namdcph.sw.extrabonds
Info: READ 8 EXTRA BONDS
Info: To read alchdata from file: coordinate pdb file (default)
Info: To read alchflag data from column: 5
Info: LONG-RANGE LJ: APPLYING ANALYTICAL CORRECTIONS TO ENERGY AND PRESSURE
Info: LONG-RANGE LJ: AVERAGE A0 AND B0 COEFFICIENTS 70944.2 AND 74.5851
Info: LONG-RANGE LJ: AVERAGE A1 AND B1 COEFFICIENTS 70943.4 AND 74.5831
Info: STRUCTURE SUMMARY:
Info: 25819 ATOMS
Info: 17480 BONDS
Info: 9873 ANGLES
Info: 2285 DIHEDRALS
Info: 178 IMPROPERS
Info: 54 CROSSTERMS
Info: 0 EXCLUSIONS
Info: 25344 RIGID BONDS
Info: ALCH: 8 ATOMS TO DISAPPEAR IN FINAL STATE
Info: ALCH: 8 ATOMS TO APPEAR IN FINAL STATE
Info: ALCH: 6 DIHEDRALS LINKING INITIAL AND FINAL ATOMS DELETED
Info: 52113 DEGREES OF FREEDOM
Info: 8775 HYDROGEN GROUPS
Info: 4 ATOMS IN LARGEST HYDROGEN GROUP
Info: 8775 MIGRATION GROUPS
Info: 4 ATOMS IN LARGEST MIGRATION GROUP
Info: TOTAL MASS = 157026 amu
Info: TOTAL CHARGE = 1 e
Info: MASS DENSITY = 1.02261 g/cm^3
Info: ATOM DENSITY = 0.101256 atoms/A^3
Info: ADDED 29624 IMPLICIT EXCLUSIONS
Info: NONBONDED TABLE R-SQUARED SPACING: 0.0625
Info: NONBONDED TABLE SIZE: 769 POINTS
Info: REMOVING COM VELOCITY 0.000218587 0.00216285 0.0192815
Info: NONBONDED TABLE R-SQUARED SPACING: 0.0625
Info: NONBONDED TABLE SIZE: 769 POINTS
Info: READING EXTRA BONDS FILE 4/namdcph.sw.extrabonds
Info: LONG-RANGE LJ: APPLYING ANALYTICAL CORRECTIONS TO ENERGY AND PRESSURE
Info: LONG-RANGE LJ: AVERAGE A AND B COEFFICIENTS 70944.2 AND 74.5851
Info: STRUCTURE SUMMARY:
Info: 25811 ATOMS
Info: 17464 BONDS
Info: 9859 ANGLES
Info: 2262 DIHEDRALS
Info: 177 IMPROPERS
Info: 54 CROSSTERMS
Info: 0 EXCLUSIONS
Info: 25340 RIGID BONDS
Info: 52093 DEGREES OF FREEDOM
Info: 8771 HYDROGEN GROUPS
Info: 4 ATOMS IN LARGEST HYDROGEN GROUP
Info: 8771 MIGRATION GROUPS
Info: 4 ATOMS IN LARGEST MIGRATION GROUP
Info: TOTAL MASS = 156966 amu
Info: TOTAL CHARGE = 1 e
Info: MASS DENSITY = 1.02222 g/cm^3
Info: ATOM DENSITY = 0.101224 atoms/A^3
Info: ADDED 29579 IMPLICIT EXCLUSIONS
Info: NONBONDED TABLE R-SQUARED SPACING: 0.0625
Info: NONBONDED TABLE SIZE: 769 POINTS
Info: REMOVING COM VELOCITY 0.00062244 0.00182106 0.0187645
Info: NONBONDED TABLE R-SQUARED SPACING: 0.0625
Info: NONBONDED TABLE SIZE: 769 POINTS
Info: READING EXTRA BONDS FILE 4/namdcph.sw.extrabonds
Info: READ 8 EXTRA BONDS
Info: To read alchdata from file: coordinate pdb file (default)
Info: To read alchflag data from column: 5
Info: LONG-RANGE LJ: APPLYING ANALYTICAL CORRECTIONS TO ENERGY AND PRESSURE
Info: LONG-RANGE LJ: AVERAGE A0 AND B0 COEFFICIENTS 70944.2 AND 74.5851
Info: LONG-RANGE LJ: AVERAGE A1 AND B1 COEFFICIENTS 70943.4 AND 74.5831
Info: STRUCTURE SUMMARY:
Info: 25819 ATOMS
Info: 17480 BONDS
Info: 9873 ANGLES
Info: 2285 DIHEDRALS
Info: 178 IMPROPERS
Info: 54 CROSSTERMS
Info: 0 EXCLUSIONS
Info: 25344 RIGID BONDS
Info: ALCH: 8 ATOMS TO DISAPPEAR IN FINAL STATE
Info: ALCH: 8 ATOMS TO APPEAR IN FINAL STATE
Info: ALCH: 6 DIHEDRALS LINKING INITIAL AND FINAL ATOMS DELETED
Info: 52113 DEGREES OF FREEDOM
Info: 8775 HYDROGEN GROUPS
Info: 4 ATOMS IN LARGEST HYDROGEN GROUP
Info: 8775 MIGRATION GROUPS
Info: 4 ATOMS IN LARGEST MIGRATION GROUP
Info: TOTAL MASS = 157026 amu
Info: TOTAL CHARGE = 1 e
Info: MASS DENSITY = 1.02261 g/cm^3
Info: ATOM DENSITY = 0.101256 atoms/A^3
Info: ADDED 29624 IMPLICIT EXCLUSIONS
Info: NONBONDED TABLE R-SQUARED SPACING: 0.0625
Info: NONBONDED TABLE SIZE: 769 POINTS
Info: REMOVING COM VELOCITY 0.0283801 0.0301517 0.0399825
Info: NONBONDED TABLE R-SQUARED SPACING: 0.0625
Info: NONBONDED TABLE SIZE: 769 POINTS
Info: READING EXTRA BONDS FILE 4/namdcph.sw.extrabonds
Info: LONG-RANGE LJ: APPLYING ANALYTICAL CORRECTIONS TO ENERGY AND PRESSURE
Info: LONG-RANGE LJ: AVERAGE A AND B COEFFICIENTS 70944.2 AND 74.5851
Info: STRUCTURE SUMMARY:
Info: 25811 ATOMS
Info: 17464 BONDS
Info: 9859 ANGLES
Info: 2262 DIHEDRALS
Info: 177 IMPROPERS
Info: 54 CROSSTERMS
Info: 0 EXCLUSIONS
Info: 25340 RIGID BONDS
Info: 52093 DEGREES OF FREEDOM
Info: 8771 HYDROGEN GROUPS
Info: 4 ATOMS IN LARGEST HYDROGEN GROUP
Info: 8771 MIGRATION GROUPS
Info: 4 ATOMS IN LARGEST MIGRATION GROUP
Info: TOTAL MASS = 156966 amu
Info: TOTAL CHARGE = 1 e
Info: MASS DENSITY = 1.02222 g/cm^3
Info: ATOM DENSITY = 0.101224 atoms/A^3
Info: ADDED 29579 IMPLICIT EXCLUSIONS
Info: NONBONDED TABLE R-SQUARED SPACING: 0.0625
Info: NONBONDED TABLE SIZE: 769 POINTS
Info: REMOVING COM VELOCITY 0.0281361 0.0303229 0.0408758
Info: NONBONDED TABLE R-SQUARED SPACING: 0.0625
Info: NONBONDED TABLE SIZE: 769 POINTS
Info: READING EXTRA BONDS FILE 4/namdcph.sw.extrabonds
Info: READ 8 EXTRA BONDS
Info: To read alchdata from file: coordinate pdb file (default)
Info: To read alchflag data from column: 5
Info: LONG-RANGE LJ: APPLYING ANALYTICAL CORRECTIONS TO ENERGY AND PRESSURE
Info: LONG-RANGE LJ: AVERAGE A0 AND B0 COEFFICIENTS 70944.2 AND 74.5851
Info: LONG-RANGE LJ: AVERAGE A1 AND B1 COEFFICIENTS 70943.4 AND 74.5831
Info: STRUCTURE SUMMARY:
Info: 25819 ATOMS
Info: 17480 BONDS
Info: 9873 ANGLES
Info: 2285 DIHEDRALS
Info: 178 IMPROPERS
Info: 54 CROSSTERMS
Info: 0 EXCLUSIONS
Info: 25344 RIGID BONDS
Info: ALCH: 8 ATOMS TO DISAPPEAR IN FINAL STATE
Info: ALCH: 8 ATOMS TO APPEAR IN FINAL STATE
Info: ALCH: 6 DIHEDRALS LINKING INITIAL AND FINAL ATOMS DELETED
Info: 52113 DEGREES OF FREEDOM
Info: 8775 HYDROGEN GROUPS
Info: 4 ATOMS IN LARGEST HYDROGEN GROUP
Info: 8775 MIGRATION GROUPS
Info: 4 ATOMS IN LARGEST MIGRATION GROUP
Info: TOTAL MASS = 157026 amu
Info: TOTAL CHARGE = 1 e
Info: MASS DENSITY = 1.02261 g/cm^3
Info: ATOM DENSITY = 0.101256 atoms/A^3
Info: ADDED 29624 IMPLICIT EXCLUSIONS
Info: NONBONDED TABLE R-SQUARED SPACING: 0.0625
Info: NONBONDED TABLE SIZE: 769 POINTS
Info: REMOVING COM VELOCITY 0.0140739 0.0431675 -0.0477272
Info: NONBONDED TABLE R-SQUARED SPACING: 0.0625
Info: NONBONDED TABLE SIZE: 769 POINTS
Info: READING EXTRA BONDS FILE 4/namdcph.sw.extrabonds
Info: LONG-RANGE LJ: APPLYING ANALYTICAL CORRECTIONS TO ENERGY AND PRESSURE
Info: LONG-RANGE LJ: AVERAGE A AND B COEFFICIENTS 70944.2 AND 74.5851
Info: STRUCTURE SUMMARY:
Info: 25811 ATOMS
Info: 17464 BONDS
Info: 9859 ANGLES
Info: 2262 DIHEDRALS
Info: 177 IMPROPERS
Info: 54 CROSSTERMS
Info: 0 EXCLUSIONS
Info: 25340 RIGID BONDS
Info: 52093 DEGREES OF FREEDOM
Info: 8771 HYDROGEN GROUPS
Info: 4 ATOMS IN LARGEST HYDROGEN GROUP
Info: 8771 MIGRATION GROUPS
Info: 4 ATOMS IN LARGEST MIGRATION GROUP
Info: TOTAL MASS = 156966 amu
Info: TOTAL CHARGE = 1 e
Info: MASS DENSITY = 1.02222 g/cm^3
Info: ATOM DENSITY = 0.101224 atoms/A^3
Info: ADDED 29579 IMPLICIT EXCLUSIONS
Info: NONBONDED TABLE R-SQUARED SPACING: 0.0625
Info: NONBONDED TABLE SIZE: 769 POINTS
Info: REMOVING COM VELOCITY 0.0133071 0.0420759 -0.0490472
Info: NONBONDED TABLE R-SQUARED SPACING: 0.0625
Info: NONBONDED TABLE SIZE: 769 POINTS
Info: READING EXTRA BONDS FILE 4/namdcph.sw.extrabonds
Info: READ 8 EXTRA BONDS
Info: To read alchdata from file: coordinate pdb file (default)
Info: To read alchflag data from column: 5
Info: LONG-RANGE LJ: APPLYING ANALYTICAL CORRECTIONS TO ENERGY AND PRESSURE
Info: LONG-RANGE LJ: AVERAGE A0 AND B0 COEFFICIENTS 70944.2 AND 74.5851
Info: LONG-RANGE LJ: AVERAGE A1 AND B1 COEFFICIENTS 70943.4 AND 74.5831
Info: STRUCTURE SUMMARY:
Info: 25819 ATOMS
Info: 17480 BONDS
Info: 9873 ANGLES
Info: 2285 DIHEDRALS
Info: 178 IMPROPERS
Info: 54 CROSSTERMS
Info: 0 EXCLUSIONS
Info: 25344 RIGID BONDS
Info: ALCH: 8 ATOMS TO DISAPPEAR IN FINAL STATE
Info: ALCH: 8 ATOMS TO APPEAR IN FINAL STATE
Info: ALCH: 6 DIHEDRALS LINKING INITIAL AND FINAL ATOMS DELETED
Info: 52113 DEGREES OF FREEDOM
Info: 8775 HYDROGEN GROUPS
Info: 4 ATOMS IN LARGEST HYDROGEN GROUP
Info: 8775 MIGRATION GROUPS
Info: 4 ATOMS IN LARGEST MIGRATION GROUP
Info: TOTAL MASS = 157026 amu
Info: TOTAL CHARGE = 1 e
Info: MASS DENSITY = 1.02261 g/cm^3
Info: ATOM DENSITY = 0.101256 atoms/A^3
Info: ADDED 29624 IMPLICIT EXCLUSIONS
Info: NONBONDED TABLE R-SQUARED SPACING: 0.0625
Info: NONBONDED TABLE SIZE: 769 POINTS
Info: REMOVING COM VELOCITY -0.00524079 -0.0320154 0.0218728
Info: NONBONDED TABLE R-SQUARED SPACING: 0.0625
Info: NONBONDED TABLE SIZE: 769 POINTS
Info: READING EXTRA BONDS FILE 4/namdcph.sw.extrabonds
Info: LONG-RANGE LJ: APPLYING ANALYTICAL CORRECTIONS TO ENERGY AND PRESSURE
Info: LONG-RANGE LJ: AVERAGE A AND B COEFFICIENTS 70944.2 AND 74.5851
Info: STRUCTURE SUMMARY:
Info: 25811 ATOMS
Info: 17464 BONDS
Info: 9859 ANGLES
Info: 2262 DIHEDRALS
Info: 177 IMPROPERS
Info: 54 CROSSTERMS
Info: 0 EXCLUSIONS
Info: 25340 RIGID BONDS
Info: 52093 DEGREES OF FREEDOM
Info: 8771 HYDROGEN GROUPS
Info: 4 ATOMS IN LARGEST HYDROGEN GROUP
Info: 8771 MIGRATION GROUPS
Info: 4 ATOMS IN LARGEST MIGRATION GROUP
Info: TOTAL MASS = 156966 amu
Info: TOTAL CHARGE = 1 e
Info: MASS DENSITY = 1.02222 g/cm^3
Info: ATOM DENSITY = 0.101224 atoms/A^3
Info: ADDED 29579 IMPLICIT EXCLUSIONS
Info: NONBONDED TABLE R-SQUARED SPACING: 0.0625
Info: NONBONDED TABLE SIZE: 769 POINTS
Info: REMOVING COM VELOCITY -0.00561863 -0.0324163 0.0211883
Info: NONBONDED TABLE R-SQUARED SPACING: 0.0625
Info: NONBONDED TABLE SIZE: 769 POINTS
Info: READING EXTRA BONDS FILE 4/namdcph.sw.extrabonds
Info: READ 8 EXTRA BONDS
Info: To read alchdata from file: coordinate pdb file (default)
Info: To read alchflag data from column: 5
Info: LONG-RANGE LJ: APPLYING ANALYTICAL CORRECTIONS TO ENERGY AND PRESSURE
Info: LONG-RANGE LJ: AVERAGE A0 AND B0 COEFFICIENTS 70944.2 AND 74.5851
Info: LONG-RANGE LJ: AVERAGE A1 AND B1 COEFFICIENTS 70943.4 AND 74.5831
Info: STRUCTURE SUMMARY:
Info: 25819 ATOMS
Info: 17480 BONDS
Info: 9873 ANGLES
Info: 2285 DIHEDRALS
Info: 178 IMPROPERS
Info: 54 CROSSTERMS
Info: 0 EXCLUSIONS
Info: 25344 RIGID BONDS
Info: ALCH: 8 ATOMS TO DISAPPEAR IN FINAL STATE
Info: ALCH: 8 ATOMS TO APPEAR IN FINAL STATE
Info: ALCH: 6 DIHEDRALS LINKING INITIAL AND FINAL ATOMS DELETED
Info: 52113 DEGREES OF FREEDOM
Info: 8775 HYDROGEN GROUPS
Info: 4 ATOMS IN LARGEST HYDROGEN GROUP
Info: 8775 MIGRATION GROUPS
Info: 4 ATOMS IN LARGEST MIGRATION GROUP
Info: TOTAL MASS = 157026 amu
Info: TOTAL CHARGE = 1 e
Info: MASS DENSITY = 1.02261 g/cm^3
Info: ATOM DENSITY = 0.101256 atoms/A^3
Info: ADDED 29624 IMPLICIT EXCLUSIONS
Info: NONBONDED TABLE R-SQUARED SPACING: 0.0625
Info: NONBONDED TABLE SIZE: 769 POINTS
Info: REMOVING COM VELOCITY 0.0191917 0.0310199 -0.0102889
Info: NONBONDED TABLE R-SQUARED SPACING: 0.0625
Info: NONBONDED TABLE SIZE: 769 POINTS
Info: READING EXTRA BONDS FILE 4/namdcph.sw.extrabonds
Info: LONG-RANGE LJ: APPLYING ANALYTICAL CORRECTIONS TO ENERGY AND PRESSURE
Info: LONG-RANGE LJ: AVERAGE A AND B COEFFICIENTS 70943.4 AND 74.5831
Info: STRUCTURE SUMMARY:
Info: 25811 ATOMS
Info: 17464 BONDS
Info: 9859 ANGLES
Info: 2262 DIHEDRALS
Info: 177 IMPROPERS
Info: 54 CROSSTERMS
Info: 0 EXCLUSIONS
Info: 25340 RIGID BONDS
Info: 52093 DEGREES OF FREEDOM
Info: 8771 HYDROGEN GROUPS
Info: 4 ATOMS IN LARGEST HYDROGEN GROUP
Info: 8771 MIGRATION GROUPS
Info: 4 ATOMS IN LARGEST MIGRATION GROUP
Info: TOTAL MASS = 156966 amu
Info: TOTAL CHARGE = 2 e
Info: MASS DENSITY = 1.02222 g/cm^3
Info: ATOM DENSITY = 0.101224 atoms/A^3
Info: ADDED 29579 IMPLICIT EXCLUSIONS
Info: NONBONDED TABLE R-SQUARED SPACING: 0.0625
Info: NONBONDED TABLE SIZE: 769 POINTS
Info: REMOVING COM VELOCITY -0.00764616 -0.0268534 0.0234002
Info: NONBONDED TABLE R-SQUARED SPACING: 0.0625
Info: NONBONDED TABLE SIZE: 769 POINTS
Info: READING EXTRA BONDS FILE 4/namdcph.sw.extrabonds
Info: READ 8 EXTRA BONDS
Info: To read alchdata from file: coordinate pdb file (default)
Info: To read alchflag data from column: 5
Info: LONG-RANGE LJ: APPLYING ANALYTICAL CORRECTIONS TO ENERGY AND PRESSURE
Info: LONG-RANGE LJ: AVERAGE A0 AND B0 COEFFICIENTS 70943.4 AND 74.5831
Info: LONG-RANGE LJ: AVERAGE A1 AND B1 COEFFICIENTS 70944.2 AND 74.5851
Info: STRUCTURE SUMMARY:
Info: 25819 ATOMS
Info: 17480 BONDS
Info: 9873 ANGLES
Info: 2284 DIHEDRALS
Info: 178 IMPROPERS
Info: 54 CROSSTERMS
Info: 0 EXCLUSIONS
Info: 25344 RIGID BONDS
Info: ALCH: 8 ATOMS TO DISAPPEAR IN FINAL STATE
Info: ALCH: 8 ATOMS TO APPEAR IN FINAL STATE
Info: ALCH: 6 DIHEDRALS LINKING INITIAL AND FINAL ATOMS DELETED
Info: 52113 DEGREES OF FREEDOM
Info: 8775 HYDROGEN GROUPS
Info: 4 ATOMS IN LARGEST HYDROGEN GROUP
Info: 8775 MIGRATION GROUPS
Info: 4 ATOMS IN LARGEST MIGRATION GROUP
Info: TOTAL MASS = 157026 amu
Info: TOTAL CHARGE = 1 e
Info: MASS DENSITY = 1.02261 g/cm^3
Info: ATOM DENSITY = 0.101256 atoms/A^3
Info: ADDED 29623 IMPLICIT EXCLUSIONS
Info: NONBONDED TABLE R-SQUARED SPACING: 0.0625
Info: NONBONDED TABLE SIZE: 769 POINTS
Info: REMOVING COM VELOCITY -0.0489588 -0.0298037 0.0467687
Info: NONBONDED TABLE R-SQUARED SPACING: 0.0625
Info: NONBONDED TABLE SIZE: 769 POINTS
Info: READING EXTRA BONDS FILE 4/namdcph.sw.extrabonds
Info: LONG-RANGE LJ: APPLYING ANALYTICAL CORRECTIONS TO ENERGY AND PRESSURE
Info: LONG-RANGE LJ: AVERAGE A AND B COEFFICIENTS 70944.2 AND 74.5851
Info: STRUCTURE SUMMARY:
Info: 25811 ATOMS
Info: 17464 BONDS
Info: 9859 ANGLES
Info: 2262 DIHEDRALS
Info: 177 IMPROPERS
Info: 54 CROSSTERMS
Info: 0 EXCLUSIONS
Info: 25340 RIGID BONDS
Info: 52093 DEGREES OF FREEDOM
Info: 8771 HYDROGEN GROUPS
Info: 4 ATOMS IN LARGEST HYDROGEN GROUP
Info: 8771 MIGRATION GROUPS
Info: 4 ATOMS IN LARGEST MIGRATION GROUP
Info: TOTAL MASS = 156966 amu
Info: TOTAL CHARGE = 1 e
Info: MASS DENSITY = 1.02222 g/cm^3
Info: ATOM DENSITY = 0.101224 atoms/A^3
Info: ADDED 29579 IMPLICIT EXCLUSIONS
Info: NONBONDED TABLE R-SQUARED SPACING: 0.0625
Info: NONBONDED TABLE SIZE: 769 POINTS
Info: REMOVING COM VELOCITY -0.0424107 0.0640058 -0.0739607
Info: NONBONDED TABLE R-SQUARED SPACING: 0.0625
Info: NONBONDED TABLE SIZE: 769 POINTS
Info: READING EXTRA BONDS FILE 4/namdcph.sw.extrabonds
Info: READ 8 EXTRA BONDS
Info: To read alchdata from file: coordinate pdb file (default)
Info: To read alchflag data from column: 5
Info: LONG-RANGE LJ: APPLYING ANALYTICAL CORRECTIONS TO ENERGY AND PRESSURE
Info: LONG-RANGE LJ: AVERAGE A0 AND B0 COEFFICIENTS 70944.2 AND 74.5851
Info: LONG-RANGE LJ: AVERAGE A1 AND B1 COEFFICIENTS 70943.4 AND 74.5831
Info: STRUCTURE SUMMARY:
Info: 25819 ATOMS
Info: 17480 BONDS
Info: 9873 ANGLES
Info: 2284 DIHEDRALS
Info: 178 IMPROPERS
Info: 54 CROSSTERMS
Info: 0 EXCLUSIONS
Info: 25344 RIGID BONDS
Info: ALCH: 8 ATOMS TO DISAPPEAR IN FINAL STATE
Info: ALCH: 8 ATOMS TO APPEAR IN FINAL STATE
Info: ALCH: 6 DIHEDRALS LINKING INITIAL AND FINAL ATOMS DELETED
Info: 52113 DEGREES OF FREEDOM
Info: 8775 HYDROGEN GROUPS
Info: 4 ATOMS IN LARGEST HYDROGEN GROUP
Info: 8775 MIGRATION GROUPS
Info: 4 ATOMS IN LARGEST MIGRATION GROUP
Info: TOTAL MASS = 157026 amu
Info: TOTAL CHARGE = 1 e
Info: MASS DENSITY = 1.02261 g/cm^3
Info: ATOM DENSITY = 0.101256 atoms/A^3
Info: ADDED 29623 IMPLICIT EXCLUSIONS
Info: NONBONDED TABLE R-SQUARED SPACING: 0.0625
Info: NONBONDED TABLE SIZE: 769 POINTS
Info: REMOVING COM VELOCITY 0.011383 -0.0231768 -0.0730441
Info: NONBONDED TABLE R-SQUARED SPACING: 0.0625
Info: NONBONDED TABLE SIZE: 769 POINTS
Info: READING EXTRA BONDS FILE 4/namdcph.sw.extrabonds
Info: LONG-RANGE LJ: APPLYING ANALYTICAL CORRECTIONS TO ENERGY AND PRESSURE
Info: LONG-RANGE LJ: AVERAGE A AND B COEFFICIENTS 70943.4 AND 74.5831
Info: STRUCTURE SUMMARY:
Info: 25811 ATOMS
Info: 17464 BONDS
Info: 9859 ANGLES
Info: 2262 DIHEDRALS
Info: 177 IMPROPERS
Info: 54 CROSSTERMS
Info: 0 EXCLUSIONS
Info: 25340 RIGID BONDS
Info: 52093 DEGREES OF FREEDOM
Info: 8771 HYDROGEN GROUPS
Info: 4 ATOMS IN LARGEST HYDROGEN GROUP
Info: 8771 MIGRATION GROUPS
Info: 4 ATOMS IN LARGEST MIGRATION GROUP
Info: TOTAL MASS = 156966 amu
Info: TOTAL CHARGE = 2 e
Info: MASS DENSITY = 1.02222 g/cm^3
Info: ATOM DENSITY = 0.101224 atoms/A^3
Info: ADDED 29579 IMPLICIT EXCLUSIONS
Info: NONBONDED TABLE R-SQUARED SPACING: 0.0625
Info: NONBONDED TABLE SIZE: 769 POINTS
Info: REMOVING COM VELOCITY 0.0145028 0.0195842 0.0327527
