Info: SIMULATION PARAMETERS:
Info: TIMESTEP               2
Info: NUMBER OF STEPS        0
Info: STEPS PER CYCLE        20
Info: PERIODIC CELL BASIS 1  44.256 0 0
Info: PERIODIC CELL BASIS 2  0 55.2372 0
Info: PERIODIC CELL BASIS 3  0 0 104.307
Info: PERIODIC CELL CENTER   0.236852 0.455951 2.74095
Info: WRAPPING WATERS AROUND PERIODIC BOUNDARIES ON OUTPUT.
Info: WRAPPING ALL CLUSTERS AROUND PERIODIC BOUNDARIES ON OUTPUT.
Info: FIRST LDB TIMESTEP     100
Info: LAST LDB TIMESTEP     -1
Info: HOM BACKGROUND SCALING 1
Info: PME BACKGROUND SCALING 1
Info: MIN ATOMS PER PATCH    40
Info: INITIAL TEMPERATURE    298
Info: CENTER OF MASS MOVING INITIALLY? NO
Info: DIELECTRIC             1
Info: EXCLUDE                SCALED ONE-FOUR
Info: 1-4 ELECTROSTATICS SCALED BY 1
Info: MODIFIED 1-4 VDW PARAMETERS WILL BE USED
Info: DCD FILENAME           3/Pre3_0.dcd
Info: DCD FREQUENCY          1000
Info: DCD FIRST STEP         1000
Info: DCD FILE WILL CONTAIN UNIT CELL DATA
Info: NO EXTENDED SYSTEM TRAJECTORY OUTPUT
Info: NO VELOCITY DCD OUTPUT
Info: NO FORCE DCD OUTPUT
Info: OUTPUT FILENAME        3/Pre3_0
Info: BINARY OUTPUT FILES WILL BE USED
Info: NO RESTART FILE
Info: SWITCHING ACTIVE
Info: VDW FORCE SWITCHING ACTIVE
Info: SWITCHING ON           10
Info: SWITCHING OFF          12
Info: PAIRLIST DISTANCE      14
Info: PAIRLIST SHRINK RATE   0.01
Info: PAIRLIST GROW RATE     0.01
Info: PAIRLIST TRIGGER       0.3
Info: PAIRLISTS PER CYCLE    2
Info: PAIRLISTS ENABLED
Info: MARGIN                 2
Info: HYDROGEN GROUP CUTOFF  2.5
Info: PATCH DIMENSION        18.5
Info: ENERGY OUTPUT STEPS    1000
Info: CROSSTERM ENERGY INCLUDED IN DIHEDRAL
Info: TIMING OUTPUT STEPS    10000
Info: THERMODYNAMIC INTEGRATION (TI) ON
Info: TI LAMBDA VALUE     0
Info: TI INTRA-ALCHEMICAL NON-BONDED INTERACTIONS WILL BE DECOUPLED
Info: TI INTRA-ALCHEMICAL BONDED INTERACTIONS WILL BE DECOUPLED
Info: TI VDW SHIFTING COEFFICIENT 0
Info: TI ELEC. ACTIVE FOR ANNIHILATED PARTICLES BETWEEN LAMBDA = 0 AND LAMBDA = 1
Info: TI ELEC. ACTIVE FOR EXNIHILATED PARTICLES BETWEEN LAMBDA = 0 AND LAMBDA = 1
Info: TI VDW ACTIVE FOR ANNIHILATED PARTICLES BETWEEN LAMBDA = 0 AND LAMBDA = 1
Info: TI VDW ACTIVE FOR EXNIHILATED PARTICLES BETWEEN LAMBDA = 0 AND LAMBDA = 1
Info: TI BOND ACTIVE FOR ANNIHILATED PARTICLES BETWEEN LAMBDA = 0 AND LAMBDA = 1
Info: TI BOND ACTIVE FOR EXNIHILATED PARTICLES BETWEEN LAMBDA = 0 AND LAMBDA = 1
Info: LANGEVIN DYNAMICS ACTIVE
Info: LANGEVIN TEMPERATURE   298
Info: LANGEVIN USING BBK INTEGRATOR
Info: LANGEVIN DAMPING COEFFICIENT IS 1 INVERSE PS
Info: LANGEVIN DYNAMICS NOT APPLIED TO HYDROGENS
Info: PARTICLE MESH EWALD (PME) ACTIVE
Info: PME TOLERANCE               1e-06
Info: PME EWALD COEFFICIENT       0.257952
Info: PME INTERPOLATION ORDER     4
Info: PME GRID DIMENSIONS         48 56 108
Info: PME MAXIMUM GRID SPACING    1
Info: FULL ELECTROSTATIC EVALUATION FREQUENCY      2
Info: USING VERLET I (r-RESPA) MTS SCHEME.
Info: C1 SPLITTING OF LONG RANGE ELECTROSTATICS
Info: PLACING ATOMS IN PATCHES BY HYDROGEN GROUPS
Info: RIGID BONDS TO HYDROGEN : ALL
Info:         ERROR TOLERANCE : 1e-08
Info:          MAX ITERATIONS : 100
Info: RIGID WATER USING SETTLE ALGORITHM
Info: RANDOM NUMBER SEED     1689135649
Info: USE HYDROGEN BONDS?    NO
Info: COORDINATE PDB         ../topology/preD950N.pdb
Info: STRUCTURE FILE         ../topology/preD950N.psf
Info: PARAMETER file: CHARMM format!
Info: PARAMETERS             ../../toppar/par_all36_carb.prm
Info: PARAMETERS             ../../toppar/par_all36_cgenff.prm
Info: PARAMETERS             ../../toppar/par_all36_lipid.prm
Info: PARAMETERS             ../../toppar/par_all36_na.prm
Info: PARAMETERS             ../../toppar/par_all36_prot.prm
Info: PARAMETERS             ../../toppar/par_all36_solvent.prm
Info: PARAMETERS             ../../toppar/par_cph36_prot.prm
Info: PARAMETERS             ../../toppar/toppar_all36_carb_glycopeptide.str
Info: PARAMETERS             ../../toppar/toppar_water_ions_namd.str
Info: USING ARITHMETIC MEAN TO COMBINE L-J SIGMA PARAMETERS
Info: SKIPPING rtf SECTION IN STREAM FILE
Info: SKIPPING rtf SECTION IN STREAM FILE
Info: SUMMARY OF PARAMETERS:
Info: 925 BONDS
Info: 2696 ANGLES
Info: 6608 DIHEDRAL
Info: 195 IMPROPER
Info: 6 CROSSTERM
Info: 366 VDW
Info: 6 VDW_PAIRS
Info: 0 NBTHOLE_PAIRS
Info: READING EXTRA BONDS FILE 3/namdcph.sw.extrabonds
Info: To read alchdata from file: coordinate pdb file (default)
Info: To read alchflag data from column: 5
Info: LONG-RANGE LJ: APPLYING ANALYTICAL CORRECTIONS TO ENERGY AND PRESSURE
Info: LONG-RANGE LJ: AVERAGE A0 AND B0 COEFFICIENTS 70944.9 AND 74.5871
Info: LONG-RANGE LJ: AVERAGE A1 AND B1 COEFFICIENTS 70944.9 AND 74.5871
Info: STRUCTURE SUMMARY:
Info: 25807 ATOMS
Info: 17460 BONDS
Info: 9855 ANGLES
Info: 2254 DIHEDRALS
Info: 177 IMPROPERS
Info: 54 CROSSTERMS
Info: 0 EXCLUSIONS
Info: 25336 RIGID BONDS
Info: ALCH: 0 ATOMS TO DISAPPEAR IN FINAL STATE
Info: ALCH: 0 ATOMS TO APPEAR IN FINAL STATE
Info: 52085 DEGREES OF FREEDOM
Info: 8771 HYDROGEN GROUPS
Info: 4 ATOMS IN LARGEST HYDROGEN GROUP
Info: 8771 MIGRATION GROUPS
Info: 4 ATOMS IN LARGEST MIGRATION GROUP
Info: TOTAL MASS = 156962 amu
Info: TOTAL CHARGE = 4.35859e-07 e
Info: MASS DENSITY = 1.02219 g/cm^3
Info: ATOM DENSITY = 0.101209 atoms/A^3
Info: ADDED 29563 IMPLICIT EXCLUSIONS
Info: NONBONDED TABLE R-SQUARED SPACING: 0.0625
Info: NONBONDED TABLE SIZE: 769 POINTS
Info: REMOVING COM VELOCITY -0.039347 0.0331616 -0.0114821
TCL: Setting parameter alchLambdaFreq to 1
Info: NONBONDED TABLE R-SQUARED SPACING: 0.0625
Info: NONBONDED TABLE SIZE: 769 POINTS
TCL: Setting parameter alch to off
Info: NONBONDED TABLE R-SQUARED SPACING: 0.0625
Info: NONBONDED TABLE SIZE: 769 POINTS
TCL: namdcph) initializing constant pH PSF...
TCL: WARNING! Building new atom PP1:918:HE1 with unknown mass.
TCL:          This may cause issues, for example, with mass repartitioning.
TCL: WARNING! Building new atom PP1:918:HE2 with unknown mass.
TCL:          This may cause issues, for example, with mass repartitioning.
TCL: WARNING! Building new atom PP1:936:HD1 with unknown mass.
TCL:          This may cause issues, for example, with mass repartitioning.
TCL: WARNING! Building new atom PP1:936:HD2 with unknown mass.
TCL:          This may cause issues, for example, with mass repartitioning.
TCL: cphpsfgen) creating new alchemical side chain for PP1:918:GLU
TCL: cphpsfgen) merging alchemical sidechains for PP1:918:GLU
TCL: cphpsfgen) creating new alchemical side chain for PP1:921:LYS
TCL: cphpsfgen) merging alchemical sidechains for PP1:921:LYS
TCL: cphpsfgen) creating new alchemical side chain for PP1:933:LYS
TCL: cphpsfgen) merging alchemical sidechains for PP1:933:LYS
TCL: cphpsfgen) creating new alchemical side chain for PP1:936:ASP
TCL: cphpsfgen) merging alchemical sidechains for PP1:936:ASP
TCL: cphpsfgen) creating new alchemical side chain for PP1:947:LYS
TCL: cphpsfgen) merging alchemical sidechains for PP1:947:LYS
TCL: cphpsfgen) creating new alchemical side chain for PP1:964:LYS
TCL: cphpsfgen) merging alchemical sidechains for PP1:964:LYS
TCL: namdcph) ***************************************
TCL: namdcph) CONSTANT pH MD ACTIVE
TCL: namdcph) SYSTEM pH 3
TCL: namdcph) CONSTANT pH CONFIGURATION FILE(S)
TCL: namdcph) ../../toppar/conf_cph36_prot.json
TCL: namdcph) NONEQUILIBRIUM SWITCH PARAMETERS:
TCL: namdcph) ALCHEMICAL FORCE CONSTANT 100.0 kcal/mol-A^2
TCL: namdcph) neMD/MC CRITERION TEMPERATURE 298.0
TCL: namdcph) TEMPORARY FILE INFORMATION:
TCL: namdcph) cpH TOPOLOGY FILE BASENAME 3/namdcph.md
TCL: namdcph) neMD/MC TRAJECTORY BASENAME 3/namdcph.sw
TCL: namdcph) ***************************************
TCL: namdcph) ***************************************
TCL: namdcph) TITRATABLE RESIDUE DEFINITIONS:
TCL: namdcph) HIS ASP GLU CYS LYS
TCL: namdcph) TITRATABLE SYSTEM SUMMARY:
TCL: namdcph) 6 RESIDUE(S)
TCL: namdcph) 16 PROTONATION SITE(S)
TCL: namdcph) ***************************************
TCL: namdcph) segid:resid:resname : state : pKai
TCL: namdcph) PP1:918:GLU         :     2 : 5.90
TCL: namdcph) PP1:921:LYS         :     P : 9.77
TCL: namdcph) PP1:933:LYS         :     P : 9.54
TCL: namdcph) PP1:936:ASP         :     2 : 5.26
TCL: namdcph) PP1:947:LYS         :     P : 9.83
TCL: namdcph) PP1:964:LYS         :     P : 9.68
TCL: namdcph) ***************************************
TCL: namdcph) *************************************************
TCL: namdcph) CONSTANT pH neMD/MC MOVES:
TCL: namdcph) MAX. ATTEMPTS PER CYCLE: 1
TCL: namdcph) ONE RESIDUE MOVES
TCL: namdcph) move label     : numsteps   weight
TCL: namdcph) PP1:918:GLU    :    75000     1.00
TCL: namdcph) PP1:921:LYS    :    75000     1.00
TCL: namdcph) PP1:933:LYS    :    75000     1.00
TCL: namdcph) PP1:936:ASP    :    75000     1.00
TCL: namdcph) PP1:947:LYS    :    75000     1.00
TCL: namdcph) PP1:964:LYS    :    75000     1.00
TCL: namdcph) *************************************************
TCL: namdcph) clearing extraBondsFile 3/namdcph.sw.extrabonds
TCL: Reloading molecular structure from file 3/namdcph.md.psf and pdb file 3/namdcph.md.pdb
Info: READING EXTRA BONDS FILE 3/namdcph.sw.extrabonds
Info: LONG-RANGE LJ: APPLYING ANALYTICAL CORRECTIONS TO ENERGY AND PRESSURE
Info: LONG-RANGE LJ: AVERAGE A AND B COEFFICIENTS 70943.4 AND 74.5831
Info: STRUCTURE SUMMARY:
Info: 25811 ATOMS
Info: 17464 BONDS
Info: 9859 ANGLES
Info: 2262 DIHEDRALS
Info: 177 IMPROPERS
Info: 54 CROSSTERMS
Info: 0 EXCLUSIONS
Info: 25340 RIGID BONDS
Info: 52093 DEGREES OF FREEDOM
Info: 8771 HYDROGEN GROUPS
Info: 4 ATOMS IN LARGEST HYDROGEN GROUP
Info: 8771 MIGRATION GROUPS
Info: 4 ATOMS IN LARGEST MIGRATION GROUP
Info: TOTAL MASS = 156966 amu
Info: TOTAL CHARGE = 2 e
Info: MASS DENSITY = 1.02222 g/cm^3
Info: ATOM DENSITY = 0.101224 atoms/A^3
Info: ADDED 29579 IMPLICIT EXCLUSIONS
Info: NONBONDED TABLE R-SQUARED SPACING: 0.0625
Info: NONBONDED TABLE SIZE: 769 POINTS
TCL: Reinitializing atom data from files with basename 3/namdcph.md
Info: REMOVING COM VELOCITY -0.00111464 0.00254475 -0.000800017
TCL: Minimizing for 300 steps
ETITLE: TS BOND ANGLE DIHED IMPRP ELECT VDW BOUNDARY MISC KINETIC TOTAL TEMP POTENTIAL TOTAL3 TEMPAVG PRESSURE GPRESSURE VOLUME PRESSAVG GPRESSAVG
ENERGY: 0 62.4934 105.4706 437.8753 0.5632 -79818.6163 99999999999.9999 0.0000 0.0000 0.0000 99999999999.9999 0.0000 99999999999.9999 99999999999.9999 0.0000 99999999999.9999 99999999999.9999 254987.8783 99999999999.9999 99999999999.9999
ENERGY: 60 179.6353 170.0033 429.7782 7.7621 -92747.0341 12463.5626 0.0000 0.0000 0.0000 -79496.2925 0.0000 -79496.2925 -79496.2925 0.0000 25088.9871 6823.6369 254987.8783 25088.9871 6823.6369
ENERGY: 120 164.5029 278.5692 429.8953 11.7001 -97999.8003 9972.6166 0.0000 0.0000 0.0000 -87142.5163 0.0000 -87142.5163 -87142.5163 0.0000 21420.2976 2152.2142 254987.8783 21420.2976 2152.2142
ENERGY: 180 177.6134 196.1923 431.6534 15.6912 -101002.9601 9042.4732 0.0000 0.0000 0.0000 -91139.3367 0.0000 -91139.3367 -91139.3367 0.0000 20052.4521 174.7208 254987.8783 20052.4521 174.7208
ENERGY: 240 60.1577 195.2271 430.2504 12.1952 -104370.1812 8825.8872 0.0000 0.0000 0.0000 -94846.4636 0.0000 -94846.4636 -94846.4636 0.0000 19531.7282 19468.8758 254987.8783 19531.7282 19468.8758
ENERGY: 300 65.4810 178.8072 424.8263 11.0811 -105905.2235 8836.9999 0.0000 0.0000 0.0000 -96388.0280 0.0000 -96388.0280 -96388.0280 0.0000 19437.0176 19369.2119 254987.8783 19437.0176 19369.2119
TCL: Setting parameter firstTimeStep to 0
TCL: Running for 500 steps
ETITLE: TS BOND ANGLE DIHED IMPRP ELECT VDW BOUNDARY MISC KINETIC TOTAL TEMP POTENTIAL TOTAL3 TEMPAVG PRESSURE GPRESSURE VOLUME PRESSAVG GPRESSAVG
ENERGY: 0 65.4810 178.8072 424.8263 11.0811 -105905.2235 8836.9999 0.0000 0.0000 15531.3417 -80856.6863 300.0682 -96388.0280 -80871.7066 300.0682 -2829.7004 -2768.0939 254987.8783 -2829.7004 -2768.0939
TCL: namdcph) Proposal rejected.
TCL: Running for 500 steps without repeating first step
ETITLE: TS BOND ANGLE DIHED IMPRP ELECT VDW BOUNDARY MISC KINETIC TOTAL TEMP POTENTIAL TOTAL3 TEMPAVG PRESSURE GPRESSURE VOLUME PRESSAVG GPRESSAVG
ENERGY: 1000 146.8716 390.2645 474.5070 31.6498 -101097.9402 9505.4472 0.0000 0.0000 13481.3592 -77067.8410 260.4622 -90549.2001 -77031.9323 241.7131 -397.6644 -362.0625 254987.8783 -500.2973 -500.3270
TCL: namdcph) Proposal rejected.
TCL: Running for 500 steps without repeating first step
TCL: namdcph) Proposal rejected.
TCL: Running for 500 steps without repeating first step
ETITLE: TS BOND ANGLE DIHED IMPRP ELECT VDW BOUNDARY MISC KINETIC TOTAL TEMP POTENTIAL TOTAL3 TEMPAVG PRESSURE GPRESSURE VOLUME PRESSAVG GPRESSAVG
ENERGY: 2000 167.2417 480.7080 473.5980 37.8644 -99031.5159 8734.5425 0.0000 0.0000 14426.9024 -74710.6588 278.7303 -89137.5611 -74669.6545 268.8057 -662.3306 -630.6552 254987.8783 -447.3023 -447.2169
TCL: namdcph) Proposal rejected.
TCL: Running for 500 steps without repeating first step
TCL: namdcph) Proposal rejected.
TCL: Running for 500 steps without repeating first step
ETITLE: TS BOND ANGLE DIHED IMPRP ELECT VDW BOUNDARY MISC KINETIC TOTAL TEMP POTENTIAL TOTAL3 TEMPAVG PRESSURE GPRESSURE VOLUME PRESSAVG GPRESSAVG
ENERGY: 3000 165.8760 455.5623 480.9060 32.5634 -97652.5634 8381.9324 0.0000 0.0000 14837.3762 -73298.3470 286.6607 -88135.7232 -73266.3131 281.4171 -710.1682 -667.0786 254987.8783 -409.8595 -409.8575
TCL: namdcph) Proposal rejected.
TCL: Running for 500 steps without repeating first step
TCL: namdcph) Proposal rejected.
TCL: Running for 500 steps without repeating first step
ETITLE: TS BOND ANGLE DIHED IMPRP ELECT VDW BOUNDARY MISC KINETIC TOTAL TEMP POTENTIAL TOTAL3 TEMPAVG PRESSURE GPRESSURE VOLUME PRESSAVG GPRESSAVG
ENERGY: 4000 166.3342 484.4220 473.5589 27.1697 -97219.2285 8549.7061 0.0000 0.0000 15078.6381 -72439.3994 291.3219 -87518.0375 -72400.5016 289.5852 -247.5932 -210.9942 254987.8783 -221.1307 -221.0438
TCL: namdcph) Proposal rejected.
TCL: Running for 500 steps without repeating first step
TCL: namdcph) Proposal rejected.
TCL: Running for 500 steps without repeating first step
ETITLE: TS BOND ANGLE DIHED IMPRP ELECT VDW BOUNDARY MISC KINETIC TOTAL TEMP POTENTIAL TOTAL3 TEMPAVG PRESSURE GPRESSURE VOLUME PRESSAVG GPRESSAVG
ENERGY: 5000 146.6624 507.6486 480.0345 33.7137 -96840.6150 8477.9000 0.0000 0.0000 15185.1902 -72009.4657 293.3805 -87194.6559 -71971.4143 293.1735 -50.0082 -15.1287 254987.8783 -269.1186 -268.9765
TCL: namdcph) Proposal rejected.
TCL: Running for 500 steps without repeating first step
TCL: namdcph) Proposal rejected.
TCL: Running for 500 steps without repeating first step
ETITLE: TS BOND ANGLE DIHED IMPRP ELECT VDW BOUNDARY MISC KINETIC TOTAL TEMP POTENTIAL TOTAL3 TEMPAVG PRESSURE GPRESSURE VOLUME PRESSAVG GPRESSAVG
ENERGY: 6000 156.1211 521.0870 469.6471 34.4867 -96728.8063 8452.8084 0.0000 0.0000 15317.8223 -71776.8339 295.9430 -87094.6561 -71738.7377 295.2813 -144.6166 -110.6849 254987.8783 -224.1292 -224.1517
TCL: namdcph) Proposal rejected.
TCL: Running for 500 steps without repeating first step
TCL: namdcph) Proposal rejected.
TCL: Running for 500 steps without repeating first step
ETITLE: TS BOND ANGLE DIHED IMPRP ELECT VDW BOUNDARY MISC KINETIC TOTAL TEMP POTENTIAL TOTAL3 TEMPAVG PRESSURE GPRESSURE VOLUME PRESSAVG GPRESSAVG
ENERGY: 7000 161.2431 478.3405 474.8496 28.7704 -96689.3621 8370.0395 0.0000 0.0000 15285.8178 -71890.3014 295.3246 -87176.1191 -71851.3988 295.4849 -170.9309 -138.7316 254987.8783 -227.8450 -227.8272
TCL: namdcph) Proposal rejected.
TCL: Running for 500 steps without repeating first step
TCL: namdcph) Proposal rejected.
TCL: Running for 500 steps without repeating first step
ETITLE: TS BOND ANGLE DIHED IMPRP ELECT VDW BOUNDARY MISC KINETIC TOTAL TEMP POTENTIAL TOTAL3 TEMPAVG PRESSURE GPRESSURE VOLUME PRESSAVG GPRESSAVG
ENERGY: 8000 180.2475 501.4531 461.7498 38.9290 -96561.2454 8335.4695 0.0000 0.0000 15381.2718 -71662.1247 297.1688 -87043.3965 -71628.4572 296.3618 -293.4375 -255.2827 254987.8783 -197.3718 -197.2148
TCL: namdcph) Proposal rejected.
TCL: Running for 500 steps without repeating first step
TCL: namdcph) Proposal rejected.
TCL: Running for 500 steps without repeating first step
ETITLE: TS BOND ANGLE DIHED IMPRP ELECT VDW BOUNDARY MISC KINETIC TOTAL TEMP POTENTIAL TOTAL3 TEMPAVG PRESSURE GPRESSURE VOLUME PRESSAVG GPRESSAVG
ENERGY: 9000 152.3847 504.6482 474.7677 27.8859 -96332.3960 8298.4966 0.0000 0.0000 15249.3605 -71624.8523 294.6203 -86874.2129 -71585.7298 297.2166 -315.2286 -281.2947 254987.8783 -240.6297 -240.6413
TCL: namdcph) Proposal rejected.
TCL: Running for 500 steps without repeating first step
TCL: namdcph) Proposal rejected.
TCL: Running for 500 steps without repeating first step
ETITLE: TS BOND ANGLE DIHED IMPRP ELECT VDW BOUNDARY MISC KINETIC TOTAL TEMP POTENTIAL TOTAL3 TEMPAVG PRESSURE GPRESSURE VOLUME PRESSAVG GPRESSAVG
ENERGY: 10000 163.7310 497.2913 468.7483 30.8607 -96643.2697 8503.4941 0.0000 0.0000 15478.7672 -71500.3771 299.0525 -86979.1443 -71467.9727 297.6472 -105.5626 -76.6859 254987.8783 -215.5439 -215.4418
TCL: namdcph) Proposal rejected.
TCL: Running for 500 steps without repeating first step
TCL: namdcph) Proposal rejected.
TCL: Running for 500 steps without repeating first step
ETITLE: TS BOND ANGLE DIHED IMPRP ELECT VDW BOUNDARY MISC KINETIC TOTAL TEMP POTENTIAL TOTAL3 TEMPAVG PRESSURE GPRESSURE VOLUME PRESSAVG GPRESSAVG
ENERGY: 11000 167.3291 473.6474 477.0852 38.6516 -96363.3685 8178.2890 0.0000 0.0000 15524.8650 -71503.5012 299.9431 -87028.3662 -71467.6539 298.5917 -318.5404 -285.2126 254987.8783 -206.2904 -206.2375
TCL: namdcph) Proposal rejected.
TCL: Running for 500 steps without repeating first step
TCL: namdcph) Proposal rejected.
TCL: Running for 500 steps without repeating first step
ETITLE: TS BOND ANGLE DIHED IMPRP ELECT VDW BOUNDARY MISC KINETIC TOTAL TEMP POTENTIAL TOTAL3 TEMPAVG PRESSURE GPRESSURE VOLUME PRESSAVG GPRESSAVG
ENERGY: 12000 160.5725 488.4427 468.5047 31.2310 -96553.2595 8405.8992 0.0000 0.0000 15511.1833 -71487.4261 299.6787 -86998.6094 -71449.6067 298.8631 -116.5454 -85.6875 254987.8783 -154.5259 -154.5300
TCL: namdcph) Proposal rejected.
TCL: Running for 500 steps without repeating first step
TCL: namdcph) Proposal rejected.
TCL: Running for 500 steps without repeating first step
ETITLE: TS BOND ANGLE DIHED IMPRP ELECT VDW BOUNDARY MISC KINETIC TOTAL TEMP POTENTIAL TOTAL3 TEMPAVG PRESSURE GPRESSURE VOLUME PRESSAVG GPRESSAVG
ENERGY: 13000 145.2254 461.8063 461.8210 31.8362 -96803.7967 8522.6665 0.0000 0.0000 15655.6330 -71524.8082 302.4695 -87180.4412 -71486.6798 298.0761 -84.6560 -46.0567 254987.8783 -158.3433 -158.3900
TCL: namdcph) Proposal rejected.
TCL: Running for 500 steps without repeating first step
TCL: namdcph) Proposal rejected.
TCL: Running for 500 steps without repeating first step
ETITLE: TS BOND ANGLE DIHED IMPRP ELECT VDW BOUNDARY MISC KINETIC TOTAL TEMP POTENTIAL TOTAL3 TEMPAVG PRESSURE GPRESSURE VOLUME PRESSAVG GPRESSAVG
ENERGY: 14000 173.2764 459.6146 482.3412 35.2900 -96628.6250 8446.1091 0.0000 0.0000 15358.4056 -71673.5880 296.7271 -87031.9937 -71637.5682 297.2870 -117.9453 -89.3567 254987.8783 -134.0465 -133.9933
TCL: namdcph) Proposal rejected.
TCL: Running for 500 steps without repeating first step
TCL: namdcph) Proposal rejected.
TCL: Running for 500 steps without repeating first step
ETITLE: TS BOND ANGLE DIHED IMPRP ELECT VDW BOUNDARY MISC KINETIC TOTAL TEMP POTENTIAL TOTAL3 TEMPAVG PRESSURE GPRESSURE VOLUME PRESSAVG GPRESSAVG
ENERGY: 15000 171.1801 457.4767 470.1760 35.1492 -96292.7940 8127.9204 0.0000 0.0000 15557.6004 -71473.2912 300.5755 -87030.8916 -71432.5686 297.5355 -401.5020 -366.1361 254987.8783 -201.6677 -201.8063
TCL: namdcph) Proposal rejected.
TCL: Running for 500 steps without repeating first step
TCL: namdcph) Proposal rejected.
TCL: Running for 500 steps without repeating first step
ETITLE: TS BOND ANGLE DIHED IMPRP ELECT VDW BOUNDARY MISC KINETIC TOTAL TEMP POTENTIAL TOTAL3 TEMPAVG PRESSURE GPRESSURE VOLUME PRESSAVG GPRESSAVG
ENERGY: 16000 150.6861 497.1474 469.0028 27.6117 -96737.7216 8539.0773 0.0000 0.0000 15447.5475 -71606.6488 298.4493 -87054.1964 -71563.0061 297.9729 -11.5123 25.2158 254987.8783 -170.4401 -170.4921
TCL: namdcph) Proposal rejected.
TCL: Running for 500 steps without repeating first step
TCL: namdcph) Proposal rejected.
TCL: Running for 500 steps without repeating first step
ETITLE: TS BOND ANGLE DIHED IMPRP ELECT VDW BOUNDARY MISC KINETIC TOTAL TEMP POTENTIAL TOTAL3 TEMPAVG PRESSURE GPRESSURE VOLUME PRESSAVG GPRESSAVG
ENERGY: 17000 163.6472 465.7560 465.8148 27.4760 -96412.4593 8164.2506 0.0000 0.0000 15276.6238 -71848.8909 295.1470 -87125.5147 -71806.0374 296.6843 -431.3189 -400.4017 254987.8783 -155.8011 -155.7593
TCL: namdcph) Proposal rejected.
TCL: Running for 500 steps without repeating first step
TCL: namdcph) Proposal rejected.
TCL: Running for 500 steps without repeating first step
ETITLE: TS BOND ANGLE DIHED IMPRP ELECT VDW BOUNDARY MISC KINETIC TOTAL TEMP POTENTIAL TOTAL3 TEMPAVG PRESSURE GPRESSURE VOLUME PRESSAVG GPRESSAVG
ENERGY: 18000 154.7106 472.5022 466.9989 36.6597 -96811.1809 8489.5454 0.0000 0.0000 15363.2803 -71827.4837 296.8212 -87190.7640 -71790.1624 296.0920 -179.9126 -149.8099 254987.8783 -234.7354 -234.7340
TCL: namdcph) Proposal rejected.
TCL: Running for 500 steps without repeating first step
TCL: namdcph) Proposal rejected.
TCL: Running for 500 steps without repeating first step
ETITLE: TS BOND ANGLE DIHED IMPRP ELECT VDW BOUNDARY MISC KINETIC TOTAL TEMP POTENTIAL TOTAL3 TEMPAVG PRESSURE GPRESSURE VOLUME PRESSAVG GPRESSAVG
ENERGY: 19000 171.1076 485.3081 474.3598 31.1619 -96201.0986 8039.7254 0.0000 0.0000 15374.2882 -71625.1476 297.0339 -86999.4358 -71593.8265 296.6280 -644.1543 -605.2393 254987.8783 -215.9066 -215.8514
TCL: namdcph) Proposal rejected.
TCL: Running for 500 steps without repeating first step
TCL: namdcph) Proposal rejected.
TCL: Running for 500 steps without repeating first step
ETITLE: TS BOND ANGLE DIHED IMPRP ELECT VDW BOUNDARY MISC KINETIC TOTAL TEMP POTENTIAL TOTAL3 TEMPAVG PRESSURE GPRESSURE VOLUME PRESSAVG GPRESSAVG
ENERGY: 20000 163.3548 474.5144 485.3086 35.5068 -96418.7631 8193.4565 0.0000 0.0000 15359.0166 -71707.6055 296.7389 -87066.6221 -71674.8302 297.0139 -394.7556 -363.2552 254987.8783 -211.4545 -211.5864
TCL: namdcph) Proposal rejected.
TCL: Running for 500 steps without repeating first step
TCL: namdcph) Proposal rejected.
TCL: Running for 500 steps without repeating first step
ETITLE: TS BOND ANGLE DIHED IMPRP ELECT VDW BOUNDARY MISC KINETIC TOTAL TEMP POTENTIAL TOTAL3 TEMPAVG PRESSURE GPRESSURE VOLUME PRESSAVG GPRESSAVG
ENERGY: 21000 159.1323 481.3560 483.2316 31.0055 -96448.0196 8185.8574 0.0000 0.0000 15433.0461 -71674.3907 298.1691 -87107.4367 -71629.9095 297.1442 -465.5629 -424.6332 254987.8783 -195.4403 -195.5869
TCL: namdcph) Proposal rejected.
TCL: Running for 500 steps without repeating first step
TCL: namdcph) Proposal rejected.
TCL: Running for 500 steps without repeating first step
ETITLE: TS BOND ANGLE DIHED IMPRP ELECT VDW BOUNDARY MISC KINETIC TOTAL TEMP POTENTIAL TOTAL3 TEMPAVG PRESSURE GPRESSURE VOLUME PRESSAVG GPRESSAVG
ENERGY: 22000 165.3529 488.5043 460.5367 29.0006 -96601.1051 8464.0965 0.0000 0.0000 15286.6640 -71706.9501 295.3410 -86993.6141 -71670.6389 296.9530 -176.4277 -143.6929 254987.8783 -166.3253 -166.3267
TCL: namdcph) Proposal rejected.
TCL: Running for 500 steps without repeating first step
TCL: namdcph) Proposal rejected.
TCL: Running for 500 steps without repeating first step
ETITLE: TS BOND ANGLE DIHED IMPRP ELECT VDW BOUNDARY MISC KINETIC TOTAL TEMP POTENTIAL TOTAL3 TEMPAVG PRESSURE GPRESSURE VOLUME PRESSAVG GPRESSAVG
ENERGY: 23000 166.7688 488.6891 471.3116 36.3001 -96339.7595 8299.3041 0.0000 0.0000 15513.7292 -71363.6567 299.7279 -86877.3859 -71330.5675 297.9190 -216.4233 -180.7718 254987.8783 -160.8340 -160.8974
TCL: namdcph) Proposal rejected.
TCL: Running for 500 steps without repeating first step
TCL: namdcph) Proposal rejected.
TCL: Running for 500 steps without repeating first step
ETITLE: TS BOND ANGLE DIHED IMPRP ELECT VDW BOUNDARY MISC KINETIC TOTAL TEMP POTENTIAL TOTAL3 TEMPAVG PRESSURE GPRESSURE VOLUME PRESSAVG GPRESSAVG
ENERGY: 24000 164.4674 497.5885 457.1685 34.5657 -96276.8194 8245.5298 0.0000 0.0000 15390.4737 -71487.0257 297.3466 -86877.4994 -71448.2634 299.2835 -285.3861 -250.2723 254987.8783 -160.3883 -160.4662
TCL: namdcph) Proposal rejected.
TCL: Running for 500 steps without repeating first step
TCL: namdcph) Proposal rejected.
TCL: Running for 500 steps without repeating first step
ETITLE: TS BOND ANGLE DIHED IMPRP ELECT VDW BOUNDARY MISC KINETIC TOTAL TEMP POTENTIAL TOTAL3 TEMPAVG PRESSURE GPRESSURE VOLUME PRESSAVG GPRESSAVG
ENERGY: 25000 149.6425 492.2510 476.2985 31.1413 -96507.9321 8409.6682 0.0000 0.0000 15317.5471 -71631.3834 295.9377 -86948.9306 -71595.6629 298.0725 -143.1827 -107.6980 254987.8783 -178.1594 -178.3170
TCL: namdcph) Proposal rejected.
TCL: Running for 500 steps without repeating first step
TCL: namdcph) Proposal rejected.
TCL: Running for 500 steps without repeating first step
ETITLE: TS BOND ANGLE DIHED IMPRP ELECT VDW BOUNDARY MISC KINETIC TOTAL TEMP POTENTIAL TOTAL3 TEMPAVG PRESSURE GPRESSURE VOLUME PRESSAVG GPRESSAVG
ENERGY: 26000 160.9293 480.1897 474.4659 39.0046 -96861.1085 8358.8005 0.0000 0.0000 15642.0108 -71705.7078 302.2064 -87347.7186 -71670.9422 297.6919 -338.3328 -298.1963 254987.8783 -169.7178 -169.7089
TCL: namdcph) Proposal rejected.
TCL: Running for 500 steps without repeating first step
TCL: namdcph) Proposal rejected.
TCL: Running for 500 steps without repeating first step
ETITLE: TS BOND ANGLE DIHED IMPRP ELECT VDW BOUNDARY MISC KINETIC TOTAL TEMP POTENTIAL TOTAL3 TEMPAVG PRESSURE GPRESSURE VOLUME PRESSAVG GPRESSAVG
ENERGY: 27000 147.3791 496.3687 477.5651 38.3104 -96561.1301 8375.9860 0.0000 0.0000 15415.2918 -71610.2289 297.8261 -87025.5207 -71574.0471 298.0995 -128.9832 -97.9597 254987.8783 -145.5563 -145.6670
TCL: namdcph) Proposal rejected.
TCL: Running for 500 steps without repeating first step
TCL: namdcph) Proposal rejected.
TCL: Running for 500 steps without repeating first step
ETITLE: TS BOND ANGLE DIHED IMPRP ELECT VDW BOUNDARY MISC KINETIC TOTAL TEMP POTENTIAL TOTAL3 TEMPAVG PRESSURE GPRESSURE VOLUME PRESSAVG GPRESSAVG
ENERGY: 28000 144.3862 496.1065 465.7446 31.7842 -96450.6501 8389.0455 0.0000 0.0000 15343.0734 -71580.5097 296.4308 -86923.5832 -71546.3494 296.9025 -117.3788 -85.3163 254987.8783 -174.1856 -174.1738
TCL: namdcph) Proposal rejected.
TCL: Running for 500 steps without repeating first step
TCL: namdcph) Proposal rejected.
TCL: Running for 500 steps without repeating first step
ETITLE: TS BOND ANGLE DIHED IMPRP ELECT VDW BOUNDARY MISC KINETIC TOTAL TEMP POTENTIAL TOTAL3 TEMPAVG PRESSURE GPRESSURE VOLUME PRESSAVG GPRESSAVG
ENERGY: 29000 175.4212 463.1646 465.9100 27.0320 -96658.1610 8370.8956 0.0000 0.0000 15476.8797 -71678.8579 299.0160 -87155.7376 -71646.6973 297.4238 -215.6242 -180.8256 254987.8783 -108.6275 -108.4609
TCL: namdcph) Proposal rejected.
TCL: Running for 500 steps without repeating first step
TCL: namdcph) Proposal rejected.
TCL: Running for 500 steps without repeating first step
ETITLE: TS BOND ANGLE DIHED IMPRP ELECT VDW BOUNDARY MISC KINETIC TOTAL TEMP POTENTIAL TOTAL3 TEMPAVG PRESSURE GPRESSURE VOLUME PRESSAVG GPRESSAVG
ENERGY: 30000 183.0959 518.2950 464.8321 30.5701 -97042.8773 8460.4631 0.0000 0.0000 15534.4399 -71851.1812 300.1281 -87385.6211 -71813.1598 296.9589 -267.7094 -229.9657 254987.8783 -107.4603 -107.5852
TCL: namdcph) Proposal rejected.
TCL: Running for 500 steps without repeating first step
TCL: namdcph) Proposal rejected.
TCL: Running for 500 steps without repeating first step
ETITLE: TS BOND ANGLE DIHED IMPRP ELECT VDW BOUNDARY MISC KINETIC TOTAL TEMP POTENTIAL TOTAL3 TEMPAVG PRESSURE GPRESSURE VOLUME PRESSAVG GPRESSAVG
ENERGY: 31000 163.9466 528.0949 468.1716 28.2589 -96418.0841 8275.1139 0.0000 0.0000 15264.2228 -71690.2754 294.9074 -86954.4982 -71656.5296 297.0735 -304.6033 -269.9890 254987.8783 -190.1179 -189.9821
TCL: namdcph) Proposal rejected.
TCL: Running for 500 steps without repeating first step
TCL: namdcph) Proposal rejected.
TCL: Running for 500 steps without repeating first step
ETITLE: TS BOND ANGLE DIHED IMPRP ELECT VDW BOUNDARY MISC KINETIC TOTAL TEMP POTENTIAL TOTAL3 TEMPAVG PRESSURE GPRESSURE VOLUME PRESSAVG GPRESSAVG
ENERGY: 32000 164.5193 519.1075 470.8717 32.2616 -96743.6324 8442.7473 0.0000 0.0000 15357.8711 -71756.2540 296.7167 -87114.1251 -71719.7614 296.9049 -169.9171 -135.6082 254987.8783 -175.6456 -175.6727
TCL: namdcph) Proposal rejected.
TCL: Running for 500 steps without repeating first step
TCL: namdcph) Proposal rejected.
TCL: Running for 500 steps without repeating first step
ETITLE: TS BOND ANGLE DIHED IMPRP ELECT VDW BOUNDARY MISC KINETIC TOTAL TEMP POTENTIAL TOTAL3 TEMPAVG PRESSURE GPRESSURE VOLUME PRESSAVG GPRESSAVG
ENERGY: 33000 164.1384 483.0285 468.4755 36.7591 -96472.0330 8195.0041 0.0000 0.0000 15475.3894 -71649.2379 298.9872 -87124.6273 -71616.1577 296.7669 -296.3511 -267.2578 254987.8783 -253.0882 -252.9273
TCL: namdcph) Proposal rejected.
TCL: Running for 500 steps without repeating first step
TCL: namdcph) Proposal rejected.
TCL: Running for 500 steps without repeating first step
ETITLE: TS BOND ANGLE DIHED IMPRP ELECT VDW BOUNDARY MISC KINETIC TOTAL TEMP POTENTIAL TOTAL3 TEMPAVG PRESSURE GPRESSURE VOLUME PRESSAVG GPRESSAVG
ENERGY: 34000 174.0401 492.7886 463.8925 34.1079 -96303.4876 8248.0720 0.0000 0.0000 15391.5934 -71498.9931 297.3682 -86890.5865 -71460.8093 297.7560 -314.5825 -283.7084 254987.8783 -182.7240 -182.7421
TCL: namdcph) Proposal rejected.
TCL: Running for 500 steps without repeating first step
TCL: namdcph) Proposal rejected.
TCL: Running for 500 steps without repeating first step
ETITLE: TS BOND ANGLE DIHED IMPRP ELECT VDW BOUNDARY MISC KINETIC TOTAL TEMP POTENTIAL TOTAL3 TEMPAVG PRESSURE GPRESSURE VOLUME PRESSAVG GPRESSAVG
ENERGY: 35000 175.0006 510.7607 460.2502 30.4234 -96272.0921 8182.4536 0.0000 0.0000 15320.7719 -71592.4318 296.0000 -86913.2036 -71555.5833 297.7597 -365.6874 -335.8292 254987.8783 -215.5651 -215.4374
TCL: namdcph) Proposal rejected.
TCL: Running for 500 steps without repeating first step
TCL: namdcph) Proposal rejected.
TCL: Running for 500 steps without repeating first step
ETITLE: TS BOND ANGLE DIHED IMPRP ELECT VDW BOUNDARY MISC KINETIC TOTAL TEMP POTENTIAL TOTAL3 TEMPAVG PRESSURE GPRESSURE VOLUME PRESSAVG GPRESSAVG
ENERGY: 36000 172.1222 498.3302 470.4793 28.4958 -96646.3629 8376.2054 0.0000 0.0000 15050.7628 -72049.9673 290.7833 -87100.7301 -72013.8908 296.2441 -238.7192 -203.3829 254987.8783 -230.4186 -230.4985
TCL: namdcph) Proposal rejected.
TCL: Running for 500 steps without repeating first step
TCL: namdcph) Proposal rejected.
TCL: Running for 500 steps without repeating first step
ETITLE: TS BOND ANGLE DIHED IMPRP ELECT VDW BOUNDARY MISC KINETIC TOTAL TEMP POTENTIAL TOTAL3 TEMPAVG PRESSURE GPRESSURE VOLUME PRESSAVG GPRESSAVG
ENERGY: 37000 150.0256 498.1607 464.5324 29.1945 -96811.9811 8510.9976 0.0000 0.0000 15131.3527 -72027.7176 292.3404 -87159.0703 -71994.7007 294.6053 -100.4601 -63.1002 254987.8783 -228.5136 -228.4185
TCL: namdcph) Proposal rejected.
TCL: Running for 500 steps without repeating first step
TCL: namdcph) Proposal rejected.
TCL: Running for 500 steps without repeating first step
ETITLE: TS BOND ANGLE DIHED IMPRP ELECT VDW BOUNDARY MISC KINETIC TOTAL TEMP POTENTIAL TOTAL3 TEMPAVG PRESSURE GPRESSURE VOLUME PRESSAVG GPRESSAVG
ENERGY: 38000 173.4307 489.4230 462.6653 33.2951 -96814.1159 8352.7274 0.0000 0.0000 15279.4712 -72023.1031 295.2020 -87302.5744 -71985.4322 294.4002 -421.3370 -386.4509 254987.8783 -257.1542 -257.2111
TCL: namdcph) Proposal rejected.
TCL: Running for 500 steps without repeating first step
TCL: namdcph) Proposal rejected.
TCL: Running for 500 steps without repeating first step
Info: NONBONDED TABLE R-SQUARED SPACING: 0.0625
Info: NONBONDED TABLE SIZE: 769 POINTS
Info: READING EXTRA BONDS FILE 3/namdcph.sw.extrabonds
Info: READ 8 EXTRA BONDS
Info: To read alchdata from file: coordinate pdb file (default)
Info: To read alchflag data from column: 5
Info: LONG-RANGE LJ: APPLYING ANALYTICAL CORRECTIONS TO ENERGY AND PRESSURE
Info: LONG-RANGE LJ: AVERAGE A0 AND B0 COEFFICIENTS 70943.4 AND 74.5831
Info: LONG-RANGE LJ: AVERAGE A1 AND B1 COEFFICIENTS 70944.2 AND 74.5851
Info: STRUCTURE SUMMARY:
Info: 25819 ATOMS
Info: 17480 BONDS
Info: 9873 ANGLES
Info: 2285 DIHEDRALS
Info: 178 IMPROPERS
Info: 54 CROSSTERMS
Info: 0 EXCLUSIONS
Info: 25344 RIGID BONDS
Info: ALCH: 8 ATOMS TO DISAPPEAR IN FINAL STATE
Info: ALCH: 8 ATOMS TO APPEAR IN FINAL STATE
Info: ALCH: 6 DIHEDRALS LINKING INITIAL AND FINAL ATOMS DELETED
Info: 52113 DEGREES OF FREEDOM
Info: 8775 HYDROGEN GROUPS
Info: 4 ATOMS IN LARGEST HYDROGEN GROUP
Info: 8775 MIGRATION GROUPS
Info: 4 ATOMS IN LARGEST MIGRATION GROUP
Info: TOTAL MASS = 157026 amu
Info: TOTAL CHARGE = 1 e
Info: MASS DENSITY = 1.02261 g/cm^3
Info: ATOM DENSITY = 0.101256 atoms/A^3
Info: ADDED 29624 IMPLICIT EXCLUSIONS
Info: NONBONDED TABLE R-SQUARED SPACING: 0.0625
Info: NONBONDED TABLE SIZE: 769 POINTS
Info: REMOVING COM VELOCITY -0.0405587 -0.0781613 -0.0610772
Info: NONBONDED TABLE R-SQUARED SPACING: 0.0625
Info: NONBONDED TABLE SIZE: 769 POINTS
Info: READING EXTRA BONDS FILE 3/namdcph.sw.extrabonds
Info: LONG-RANGE LJ: APPLYING ANALYTICAL CORRECTIONS TO ENERGY AND PRESSURE
Info: LONG-RANGE LJ: AVERAGE A AND B COEFFICIENTS 70944.2 AND 74.5851
Info: STRUCTURE SUMMARY:
Info: 25811 ATOMS
Info: 17464 BONDS
Info: 9859 ANGLES
Info: 2262 DIHEDRALS
Info: 177 IMPROPERS
Info: 54 CROSSTERMS
Info: 0 EXCLUSIONS
Info: 25340 RIGID BONDS
Info: 52093 DEGREES OF FREEDOM
Info: 8771 HYDROGEN GROUPS
Info: 4 ATOMS IN LARGEST HYDROGEN GROUP
Info: 8771 MIGRATION GROUPS
Info: 4 ATOMS IN LARGEST MIGRATION GROUP
Info: TOTAL MASS = 156966 amu
Info: TOTAL CHARGE = 1 e
Info: MASS DENSITY = 1.02222 g/cm^3
Info: ATOM DENSITY = 0.101224 atoms/A^3
Info: ADDED 29579 IMPLICIT EXCLUSIONS
Info: NONBONDED TABLE R-SQUARED SPACING: 0.0625
Info: NONBONDED TABLE SIZE: 769 POINTS
Info: REMOVING COM VELOCITY -0.0156321 -0.00109911 -0.0783292
Info: NONBONDED TABLE R-SQUARED SPACING: 0.0625
Info: NONBONDED TABLE SIZE: 769 POINTS
Info: READING EXTRA BONDS FILE 3/namdcph.sw.extrabonds
Info: READ 8 EXTRA BONDS
Info: To read alchdata from file: coordinate pdb file (default)
Info: To read alchflag data from column: 5
Info: LONG-RANGE LJ: APPLYING ANALYTICAL CORRECTIONS TO ENERGY AND PRESSURE
Info: LONG-RANGE LJ: AVERAGE A0 AND B0 COEFFICIENTS 70944.2 AND 74.5851
Info: LONG-RANGE LJ: AVERAGE A1 AND B1 COEFFICIENTS 70943.4 AND 74.5831
Info: STRUCTURE SUMMARY:
Info: 25819 ATOMS
Info: 17480 BONDS
Info: 9873 ANGLES
Info: 2285 DIHEDRALS
Info: 178 IMPROPERS
Info: 54 CROSSTERMS
Info: 0 EXCLUSIONS
Info: 25344 RIGID BONDS
Info: ALCH: 8 ATOMS TO DISAPPEAR IN FINAL STATE
Info: ALCH: 8 ATOMS TO APPEAR IN FINAL STATE
Info: ALCH: 6 DIHEDRALS LINKING INITIAL AND FINAL ATOMS DELETED
Info: 52113 DEGREES OF FREEDOM
Info: 8775 HYDROGEN GROUPS
Info: 4 ATOMS IN LARGEST HYDROGEN GROUP
Info: 8775 MIGRATION GROUPS
Info: 4 ATOMS IN LARGEST MIGRATION GROUP
Info: TOTAL MASS = 157026 amu
Info: TOTAL CHARGE = 1 e
Info: MASS DENSITY = 1.02261 g/cm^3
Info: ATOM DENSITY = 0.101256 atoms/A^3
Info: ADDED 29624 IMPLICIT EXCLUSIONS
Info: NONBONDED TABLE R-SQUARED SPACING: 0.0625
Info: NONBONDED TABLE SIZE: 769 POINTS
Info: REMOVING COM VELOCITY -0.00874769 -0.0335809 -0.00155856
Info: NONBONDED TABLE R-SQUARED SPACING: 0.0625
Info: NONBONDED TABLE SIZE: 769 POINTS
Info: READING EXTRA BONDS FILE 3/namdcph.sw.extrabonds
Info: LONG-RANGE LJ: APPLYING ANALYTICAL CORRECTIONS TO ENERGY AND PRESSURE
Info: LONG-RANGE LJ: AVERAGE A AND B COEFFICIENTS 70944.2 AND 74.5851
Info: STRUCTURE SUMMARY:
Info: 25811 ATOMS
Info: 17464 BONDS
Info: 9859 ANGLES
Info: 2262 DIHEDRALS
Info: 177 IMPROPERS
Info: 54 CROSSTERMS
Info: 0 EXCLUSIONS
Info: 25340 RIGID BONDS
Info: 52093 DEGREES OF FREEDOM
Info: 8771 HYDROGEN GROUPS
Info: 4 ATOMS IN LARGEST HYDROGEN GROUP
Info: 8771 MIGRATION GROUPS
Info: 4 ATOMS IN LARGEST MIGRATION GROUP
Info: TOTAL MASS = 156966 amu
Info: TOTAL CHARGE = 1 e
Info: MASS DENSITY = 1.02222 g/cm^3
Info: ATOM DENSITY = 0.101224 atoms/A^3
Info: ADDED 29579 IMPLICIT EXCLUSIONS
Info: NONBONDED TABLE R-SQUARED SPACING: 0.0625
Info: NONBONDED TABLE SIZE: 769 POINTS
Info: REMOVING COM VELOCITY -0.00823248 -0.0350507 -0.000255438
Info: NONBONDED TABLE R-SQUARED SPACING: 0.0625
Info: NONBONDED TABLE SIZE: 769 POINTS
Info: READING EXTRA BONDS FILE 3/namdcph.sw.extrabonds
Info: READ 8 EXTRA BONDS
Info: To read alchdata from file: coordinate pdb file (default)
Info: To read alchflag data from column: 5
Info: LONG-RANGE LJ: APPLYING ANALYTICAL CORRECTIONS TO ENERGY AND PRESSURE
Info: LONG-RANGE LJ: AVERAGE A0 AND B0 COEFFICIENTS 70944.2 AND 74.5851
Info: LONG-RANGE LJ: AVERAGE A1 AND B1 COEFFICIENTS 70943.4 AND 74.5831
Info: STRUCTURE SUMMARY:
Info: 25819 ATOMS
Info: 17480 BONDS
Info: 9873 ANGLES
Info: 2285 DIHEDRALS
Info: 178 IMPROPERS
Info: 54 CROSSTERMS
Info: 0 EXCLUSIONS
Info: 25344 RIGID BONDS
Info: ALCH: 8 ATOMS TO DISAPPEAR IN FINAL STATE
Info: ALCH: 8 ATOMS TO APPEAR IN FINAL STATE
Info: ALCH: 6 DIHEDRALS LINKING INITIAL AND FINAL ATOMS DELETED
Info: 52113 DEGREES OF FREEDOM
Info: 8775 HYDROGEN GROUPS
Info: 4 ATOMS IN LARGEST HYDROGEN GROUP
Info: 8775 MIGRATION GROUPS
Info: 4 ATOMS IN LARGEST MIGRATION GROUP
Info: TOTAL MASS = 157026 amu
Info: TOTAL CHARGE = 1 e
Info: MASS DENSITY = 1.02261 g/cm^3
Info: ATOM DENSITY = 0.101256 atoms/A^3
Info: ADDED 29624 IMPLICIT EXCLUSIONS
Info: NONBONDED TABLE R-SQUARED SPACING: 0.0625
Info: NONBONDED TABLE SIZE: 769 POINTS
Info: REMOVING COM VELOCITY -0.0105133 -0.0345693 -0.0208195
Info: NONBONDED TABLE R-SQUARED SPACING: 0.0625
Info: NONBONDED TABLE SIZE: 769 POINTS
Info: READING EXTRA BONDS FILE 3/namdcph.sw.extrabonds
Info: LONG-RANGE LJ: APPLYING ANALYTICAL CORRECTIONS TO ENERGY AND PRESSURE
Info: LONG-RANGE LJ: AVERAGE A AND B COEFFICIENTS 70944.2 AND 74.5851
Info: STRUCTURE SUMMARY:
Info: 25811 ATOMS
Info: 17464 BONDS
Info: 9859 ANGLES
Info: 2262 DIHEDRALS
Info: 177 IMPROPERS
Info: 54 CROSSTERMS
Info: 0 EXCLUSIONS
Info: 25340 RIGID BONDS
Info: 52093 DEGREES OF FREEDOM
Info: 8771 HYDROGEN GROUPS
Info: 4 ATOMS IN LARGEST HYDROGEN GROUP
Info: 8771 MIGRATION GROUPS
Info: 4 ATOMS IN LARGEST MIGRATION GROUP
Info: TOTAL MASS = 156966 amu
Info: TOTAL CHARGE = 1 e
Info: MASS DENSITY = 1.02222 g/cm^3
Info: ATOM DENSITY = 0.101224 atoms/A^3
Info: ADDED 29579 IMPLICIT EXCLUSIONS
Info: NONBONDED TABLE R-SQUARED SPACING: 0.0625
Info: NONBONDED TABLE SIZE: 769 POINTS
Info: REMOVING COM VELOCITY -0.0103528 -0.0333145 -0.0216436
Info: NONBONDED TABLE R-SQUARED SPACING: 0.0625
Info: NONBONDED TABLE SIZE: 769 POINTS
Info: READING EXTRA BONDS FILE 3/namdcph.sw.extrabonds
Info: READ 8 EXTRA BONDS
Info: To read alchdata from file: coordinate pdb file (default)
Info: To read alchflag data from column: 5
Info: LONG-RANGE LJ: APPLYING ANALYTICAL CORRECTIONS TO ENERGY AND PRESSURE
Info: LONG-RANGE LJ: AVERAGE A0 AND B0 COEFFICIENTS 70944.2 AND 74.5851
Info: LONG-RANGE LJ: AVERAGE A1 AND B1 COEFFICIENTS 70943.4 AND 74.5831
Info: STRUCTURE SUMMARY:
Info: 25819 ATOMS
Info: 17480 BONDS
Info: 9873 ANGLES
Info: 2285 DIHEDRALS
Info: 178 IMPROPERS
Info: 54 CROSSTERMS
Info: 0 EXCLUSIONS
Info: 25344 RIGID BONDS
Info: ALCH: 8 ATOMS TO DISAPPEAR IN FINAL STATE
Info: ALCH: 8 ATOMS TO APPEAR IN FINAL STATE
Info: ALCH: 6 DIHEDRALS LINKING INITIAL AND FINAL ATOMS DELETED
Info: 52113 DEGREES OF FREEDOM
Info: 8775 HYDROGEN GROUPS
Info: 4 ATOMS IN LARGEST HYDROGEN GROUP
Info: 8775 MIGRATION GROUPS
Info: 4 ATOMS IN LARGEST MIGRATION GROUP
Info: TOTAL MASS = 157026 amu
Info: TOTAL CHARGE = 1 e
Info: MASS DENSITY = 1.02261 g/cm^3
Info: ATOM DENSITY = 0.101256 atoms/A^3
Info: ADDED 29624 IMPLICIT EXCLUSIONS
Info: NONBONDED TABLE R-SQUARED SPACING: 0.0625
Info: NONBONDED TABLE SIZE: 769 POINTS
Info: REMOVING COM VELOCITY 0.0232168 -0.0176711 -0.00974902
Info: NONBONDED TABLE R-SQUARED SPACING: 0.0625
Info: NONBONDED TABLE SIZE: 769 POINTS
Info: READING EXTRA BONDS FILE 3/namdcph.sw.extrabonds
Info: LONG-RANGE LJ: APPLYING ANALYTICAL CORRECTIONS TO ENERGY AND PRESSURE
Info: LONG-RANGE LJ: AVERAGE A AND B COEFFICIENTS 70944.2 AND 74.5851
Info: STRUCTURE SUMMARY:
Info: 25811 ATOMS
Info: 17464 BONDS
Info: 9859 ANGLES
Info: 2262 DIHEDRALS
Info: 177 IMPROPERS
Info: 54 CROSSTERMS
Info: 0 EXCLUSIONS
Info: 25340 RIGID BONDS
Info: 52093 DEGREES OF FREEDOM
Info: 8771 HYDROGEN GROUPS
Info: 4 ATOMS IN LARGEST HYDROGEN GROUP
Info: 8771 MIGRATION GROUPS
Info: 4 ATOMS IN LARGEST MIGRATION GROUP
Info: TOTAL MASS = 156966 amu
Info: TOTAL CHARGE = 1 e
Info: MASS DENSITY = 1.02222 g/cm^3
Info: ATOM DENSITY = 0.101224 atoms/A^3
Info: ADDED 29579 IMPLICIT EXCLUSIONS
Info: NONBONDED TABLE R-SQUARED SPACING: 0.0625
Info: NONBONDED TABLE SIZE: 769 POINTS
Info: REMOVING COM VELOCITY 0.0231294 -0.0175086 -0.0103948
Info: NONBONDED TABLE R-SQUARED SPACING: 0.0625
Info: NONBONDED TABLE SIZE: 769 POINTS
Info: READING EXTRA BONDS FILE 3/namdcph.sw.extrabonds
Info: READ 8 EXTRA BONDS
Info: To read alchdata from file: coordinate pdb file (default)
Info: To read alchflag data from column: 5
Info: LONG-RANGE LJ: APPLYING ANALYTICAL CORRECTIONS TO ENERGY AND PRESSURE
Info: LONG-RANGE LJ: AVERAGE A0 AND B0 COEFFICIENTS 70944.2 AND 74.5851
Info: LONG-RANGE LJ: AVERAGE A1 AND B1 COEFFICIENTS 70943.4 AND 74.5831
Info: STRUCTURE SUMMARY:
Info: 25819 ATOMS
Info: 17480 BONDS
Info: 9873 ANGLES
Info: 2285 DIHEDRALS
Info: 178 IMPROPERS
Info: 54 CROSSTERMS
Info: 0 EXCLUSIONS
Info: 25344 RIGID BONDS
Info: ALCH: 8 ATOMS TO DISAPPEAR IN FINAL STATE
Info: ALCH: 8 ATOMS TO APPEAR IN FINAL STATE
Info: ALCH: 6 DIHEDRALS LINKING INITIAL AND FINAL ATOMS DELETED
Info: 52113 DEGREES OF FREEDOM
Info: 8775 HYDROGEN GROUPS
Info: 4 ATOMS IN LARGEST HYDROGEN GROUP
Info: 8775 MIGRATION GROUPS
Info: 4 ATOMS IN LARGEST MIGRATION GROUP
Info: TOTAL MASS = 157026 amu
Info: TOTAL CHARGE = 1 e
Info: MASS DENSITY = 1.02261 g/cm^3
Info: ATOM DENSITY = 0.101256 atoms/A^3
Info: ADDED 29624 IMPLICIT EXCLUSIONS
Info: NONBONDED TABLE R-SQUARED SPACING: 0.0625
Info: NONBONDED TABLE SIZE: 769 POINTS
Info: REMOVING COM VELOCITY -0.0147847 0.024111 -0.0259451
Info: NONBONDED TABLE R-SQUARED SPACING: 0.0625
Info: NONBONDED TABLE SIZE: 769 POINTS
Info: READING EXTRA BONDS FILE 3/namdcph.sw.extrabonds
Info: LONG-RANGE LJ: APPLYING ANALYTICAL CORRECTIONS TO ENERGY AND PRESSURE
Info: LONG-RANGE LJ: AVERAGE A AND B COEFFICIENTS 70944.2 AND 74.5851
Info: STRUCTURE SUMMARY:
Info: 25811 ATOMS
Info: 17464 BONDS
Info: 9859 ANGLES
Info: 2262 DIHEDRALS
Info: 177 IMPROPERS
Info: 54 CROSSTERMS
Info: 0 EXCLUSIONS
Info: 25340 RIGID BONDS
Info: 52093 DEGREES OF FREEDOM
Info: 8771 HYDROGEN GROUPS
Info: 4 ATOMS IN LARGEST HYDROGEN GROUP
Info: 8771 MIGRATION GROUPS
Info: 4 ATOMS IN LARGEST MIGRATION GROUP
Info: TOTAL MASS = 156966 amu
Info: TOTAL CHARGE = 1 e
Info: MASS DENSITY = 1.02222 g/cm^3
Info: ATOM DENSITY = 0.101224 atoms/A^3
Info: ADDED 29579 IMPLICIT EXCLUSIONS
Info: NONBONDED TABLE R-SQUARED SPACING: 0.0625
Info: NONBONDED TABLE SIZE: 769 POINTS
Info: REMOVING COM VELOCITY -0.0146702 0.0230219 -0.0264695
