Info: SIMULATION PARAMETERS:
Info: TIMESTEP               2
Info: NUMBER OF STEPS        0
Info: STEPS PER CYCLE        20
Info: PERIODIC CELL BASIS 1  44.2205 0 0
Info: PERIODIC CELL BASIS 2  0 56.6757 0
Info: PERIODIC CELL BASIS 3  0 0 104.224
Info: PERIODIC CELL CENTER   0.147329 1.06646 2.8626
Info: WRAPPING WATERS AROUND PERIODIC BOUNDARIES ON OUTPUT.
Info: WRAPPING ALL CLUSTERS AROUND PERIODIC BOUNDARIES ON OUTPUT.
Info: FIRST LDB TIMESTEP     100
Info: LAST LDB TIMESTEP     -1
Info: HOM BACKGROUND SCALING 1
Info: PME BACKGROUND SCALING 1
Info: MIN ATOMS PER PATCH    40
Info: INITIAL TEMPERATURE    298
Info: CENTER OF MASS MOVING INITIALLY? NO
Info: DIELECTRIC             1
Info: EXCLUDE                SCALED ONE-FOUR
Info: 1-4 ELECTROSTATICS SCALED BY 1
Info: MODIFIED 1-4 VDW PARAMETERS WILL BE USED
Info: DCD FILENAME           2/Pre2_0.dcd
Info: DCD FREQUENCY          1000
Info: DCD FIRST STEP         1000
Info: DCD FILE WILL CONTAIN UNIT CELL DATA
Info: NO EXTENDED SYSTEM TRAJECTORY OUTPUT
Info: NO VELOCITY DCD OUTPUT
Info: NO FORCE DCD OUTPUT
Info: OUTPUT FILENAME        2/Pre2_0
Info: BINARY OUTPUT FILES WILL BE USED
Info: NO RESTART FILE
Info: SWITCHING ACTIVE
Info: VDW FORCE SWITCHING ACTIVE
Info: SWITCHING ON           10
Info: SWITCHING OFF          12
Info: PAIRLIST DISTANCE      14
Info: PAIRLIST SHRINK RATE   0.01
Info: PAIRLIST GROW RATE     0.01
Info: PAIRLIST TRIGGER       0.3
Info: PAIRLISTS PER CYCLE    2
Info: PAIRLISTS ENABLED
Info: MARGIN                 2
Info: HYDROGEN GROUP CUTOFF  2.5
Info: PATCH DIMENSION        18.5
Info: ENERGY OUTPUT STEPS    1000
Info: CROSSTERM ENERGY INCLUDED IN DIHEDRAL
Info: TIMING OUTPUT STEPS    10000
Info: THERMODYNAMIC INTEGRATION (TI) ON
Info: TI LAMBDA VALUE     0
Info: TI INTRA-ALCHEMICAL NON-BONDED INTERACTIONS WILL BE DECOUPLED
Info: TI INTRA-ALCHEMICAL BONDED INTERACTIONS WILL BE DECOUPLED
Info: TI VDW SHIFTING COEFFICIENT 0
Info: TI ELEC. ACTIVE FOR ANNIHILATED PARTICLES BETWEEN LAMBDA = 0 AND LAMBDA = 1
Info: TI ELEC. ACTIVE FOR EXNIHILATED PARTICLES BETWEEN LAMBDA = 0 AND LAMBDA = 1
Info: TI VDW ACTIVE FOR ANNIHILATED PARTICLES BETWEEN LAMBDA = 0 AND LAMBDA = 1
Info: TI VDW ACTIVE FOR EXNIHILATED PARTICLES BETWEEN LAMBDA = 0 AND LAMBDA = 1
Info: TI BOND ACTIVE FOR ANNIHILATED PARTICLES BETWEEN LAMBDA = 0 AND LAMBDA = 1
Info: TI BOND ACTIVE FOR EXNIHILATED PARTICLES BETWEEN LAMBDA = 0 AND LAMBDA = 1
Info: LANGEVIN DYNAMICS ACTIVE
Info: LANGEVIN TEMPERATURE   298
Info: LANGEVIN USING BBK INTEGRATOR
Info: LANGEVIN DAMPING COEFFICIENT IS 1 INVERSE PS
Info: LANGEVIN DYNAMICS NOT APPLIED TO HYDROGENS
Info: PARTICLE MESH EWALD (PME) ACTIVE
Info: PME TOLERANCE               1e-06
Info: PME EWALD COEFFICIENT       0.257952
Info: PME INTERPOLATION ORDER     4
Info: PME GRID DIMENSIONS         48 60 108
Info: PME MAXIMUM GRID SPACING    1
Info: FULL ELECTROSTATIC EVALUATION FREQUENCY      2
Info: USING VERLET I (r-RESPA) MTS SCHEME.
Info: C1 SPLITTING OF LONG RANGE ELECTROSTATICS
Info: PLACING ATOMS IN PATCHES BY HYDROGEN GROUPS
Info: RIGID BONDS TO HYDROGEN : ALL
Info:         ERROR TOLERANCE : 1e-08
Info:          MAX ITERATIONS : 100
Info: RIGID WATER USING SETTLE ALGORITHM
Info: RANDOM NUMBER SEED     1688694510
Info: USE HYDROGEN BONDS?    NO
Info: COORDINATE PDB         ../topology/preD936Y.pdb
Info: STRUCTURE FILE         ../topology/preD936Y.psf
Info: PARAMETER file: CHARMM format!
Info: PARAMETERS             ../../toppar/par_all36_carb.prm
Info: PARAMETERS             ../../toppar/par_all36_cgenff.prm
Info: PARAMETERS             ../../toppar/par_all36_lipid.prm
Info: PARAMETERS             ../../toppar/par_all36_na.prm
Info: PARAMETERS             ../../toppar/par_all36_prot.prm
Info: PARAMETERS             ../../toppar/par_all36_solvent.prm
Info: PARAMETERS             ../../toppar/par_cph36_prot.prm
Info: PARAMETERS             ../../toppar/toppar_all36_carb_glycopeptide.str
Info: PARAMETERS             ../../toppar/toppar_water_ions_namd.str
Info: USING ARITHMETIC MEAN TO COMBINE L-J SIGMA PARAMETERS
Info: SKIPPING rtf SECTION IN STREAM FILE
Info: SKIPPING rtf SECTION IN STREAM FILE
Info: SUMMARY OF PARAMETERS:
Info: 925 BONDS
Info: 2696 ANGLES
Info: 6608 DIHEDRAL
Info: 195 IMPROPER
Info: 6 CROSSTERM
Info: 366 VDW
Info: 6 VDW_PAIRS
Info: 0 NBTHOLE_PAIRS
Info: READING EXTRA BONDS FILE 2/namdcph.sw.extrabonds
Info: To read alchdata from file: coordinate pdb file (default)
Info: To read alchflag data from column: 5
Info: LONG-RANGE LJ: APPLYING ANALYTICAL CORRECTIONS TO ENERGY AND PRESSURE
Info: LONG-RANGE LJ: AVERAGE A0 AND B0 COEFFICIENTS 70903.5 AND 74.5485
Info: LONG-RANGE LJ: AVERAGE A1 AND B1 COEFFICIENTS 70903.5 AND 74.5485
Info: STRUCTURE SUMMARY:
Info: 26518 ATOMS
Info: 17936 BONDS
Info: 10102 ANGLES
Info: 2276 DIHEDRALS
Info: 173 IMPROPERS
Info: 54 CROSSTERMS
Info: 0 EXCLUSIONS
Info: 26041 RIGID BONDS
Info: ALCH: 0 ATOMS TO DISAPPEAR IN FINAL STATE
Info: ALCH: 0 ATOMS TO APPEAR IN FINAL STATE
Info: 53513 DEGREES OF FREEDOM
Info: 9011 HYDROGEN GROUPS
Info: 4 ATOMS IN LARGEST HYDROGEN GROUP
Info: 9011 MIGRATION GROUPS
Info: 4 ATOMS IN LARGEST MIGRATION GROUP
Info: TOTAL MASS = 161285 amu
Info: TOTAL CHARGE = 4.20958e-07 e
Info: MASS DENSITY = 1.02534 g/cm^3
Info: ATOM DENSITY = 0.101521 atoms/A^3
Info: ADDED 30305 IMPLICIT EXCLUSIONS
Info: NONBONDED TABLE R-SQUARED SPACING: 0.0625
Info: NONBONDED TABLE SIZE: 769 POINTS
Info: REMOVING COM VELOCITY -0.0342294 0.0219387 0.00290896
TCL: Setting parameter alchLambdaFreq to 1
Info: NONBONDED TABLE R-SQUARED SPACING: 0.0625
Info: NONBONDED TABLE SIZE: 769 POINTS
TCL: Setting parameter alch to off
Info: NONBONDED TABLE R-SQUARED SPACING: 0.0625
Info: NONBONDED TABLE SIZE: 769 POINTS
TCL: namdcph) initializing constant pH PSF...
TCL: WARNING! Building new atom PP1:918:HE1 with unknown mass.
TCL:          This may cause issues, for example, with mass repartitioning.
TCL: WARNING! Building new atom PP1:918:HE2 with unknown mass.
TCL:          This may cause issues, for example, with mass repartitioning.
TCL: WARNING! Building new atom PP1:950:HD1 with unknown mass.
TCL:          This may cause issues, for example, with mass repartitioning.
TCL: WARNING! Building new atom PP1:950:HD2 with unknown mass.
TCL:          This may cause issues, for example, with mass repartitioning.
TCL: cphpsfgen) creating new alchemical side chain for PP1:918:GLU
TCL: cphpsfgen) merging alchemical sidechains for PP1:918:GLU
TCL: cphpsfgen) creating new alchemical side chain for PP1:921:LYS
TCL: cphpsfgen) merging alchemical sidechains for PP1:921:LYS
TCL: cphpsfgen) creating new alchemical side chain for PP1:933:LYS
TCL: cphpsfgen) merging alchemical sidechains for PP1:933:LYS
TCL: cphpsfgen) creating new alchemical side chain for PP1:947:LYS
TCL: cphpsfgen) merging alchemical sidechains for PP1:947:LYS
TCL: cphpsfgen) creating new alchemical side chain for PP1:950:ASP
TCL: cphpsfgen) merging alchemical sidechains for PP1:950:ASP
TCL: cphpsfgen) creating new alchemical side chain for PP1:964:LYS
TCL: cphpsfgen) merging alchemical sidechains for PP1:964:LYS
TCL: namdcph) ***************************************
TCL: namdcph) CONSTANT pH MD ACTIVE
TCL: namdcph) SYSTEM pH 2
TCL: namdcph) CONSTANT pH CONFIGURATION FILE(S)
TCL: namdcph) ../../toppar/conf_cph36_prot.json
TCL: namdcph) NONEQUILIBRIUM SWITCH PARAMETERS:
TCL: namdcph) ALCHEMICAL FORCE CONSTANT 100.0 kcal/mol-A^2
TCL: namdcph) neMD/MC CRITERION TEMPERATURE 298.0
TCL: namdcph) TEMPORARY FILE INFORMATION:
TCL: namdcph) cpH TOPOLOGY FILE BASENAME 2/namdcph.md
TCL: namdcph) neMD/MC TRAJECTORY BASENAME 2/namdcph.sw
TCL: namdcph) ***************************************
TCL: namdcph) ***************************************
TCL: namdcph) TITRATABLE RESIDUE DEFINITIONS:
TCL: namdcph) HIS ASP GLU CYS LYS
TCL: namdcph) TITRATABLE SYSTEM SUMMARY:
TCL: namdcph) 6 RESIDUE(S)
TCL: namdcph) 16 PROTONATION SITE(S)
TCL: namdcph) ***************************************
TCL: namdcph) segid:resid:resname : state : pKai
TCL: namdcph) PP1:918:GLU         :     1 : 5.90
TCL: namdcph) PP1:921:LYS         :     P : 9.77
TCL: namdcph) PP1:933:LYS         :     P : 9.53
TCL: namdcph) PP1:947:LYS         :     P : 9.82
TCL: namdcph) PP1:950:ASP         :     2 : 5.51
TCL: namdcph) PP1:964:LYS         :     P : 9.68
TCL: namdcph) ***************************************
TCL: namdcph) *************************************************
TCL: namdcph) CONSTANT pH neMD/MC MOVES:
TCL: namdcph) MAX. ATTEMPTS PER CYCLE: 1
TCL: namdcph) ONE RESIDUE MOVES
TCL: namdcph) move label     : numsteps   weight
TCL: namdcph) PP1:918:GLU    :    75000     1.00
TCL: namdcph) PP1:921:LYS    :    75000     1.00
TCL: namdcph) PP1:933:LYS    :    75000     1.00
TCL: namdcph) PP1:947:LYS    :    75000     1.00
TCL: namdcph) PP1:950:ASP    :    75000     1.00
TCL: namdcph) PP1:964:LYS    :    75000     1.00
TCL: namdcph) *************************************************
TCL: namdcph) clearing extraBondsFile 2/namdcph.sw.extrabonds
TCL: Reloading molecular structure from file 2/namdcph.md.psf and pdb file 2/namdcph.md.pdb
Info: READING EXTRA BONDS FILE 2/namdcph.sw.extrabonds
Info: LONG-RANGE LJ: APPLYING ANALYTICAL CORRECTIONS TO ENERGY AND PRESSURE
Info: LONG-RANGE LJ: AVERAGE A AND B COEFFICIENTS 70902 AND 74.5446
Info: STRUCTURE SUMMARY:
Info: 26522 ATOMS
Info: 17940 BONDS
Info: 10106 ANGLES
Info: 2284 DIHEDRALS
Info: 173 IMPROPERS
Info: 54 CROSSTERMS
Info: 0 EXCLUSIONS
Info: 26045 RIGID BONDS
Info: 53521 DEGREES OF FREEDOM
Info: 9011 HYDROGEN GROUPS
Info: 4 ATOMS IN LARGEST HYDROGEN GROUP
Info: 9011 MIGRATION GROUPS
Info: 4 ATOMS IN LARGEST MIGRATION GROUP
Info: TOTAL MASS = 161289 amu
Info: TOTAL CHARGE = 2 e
Info: MASS DENSITY = 1.02536 g/cm^3
Info: ATOM DENSITY = 0.101536 atoms/A^3
Info: ADDED 30321 IMPLICIT EXCLUSIONS
Info: NONBONDED TABLE R-SQUARED SPACING: 0.0625
Info: NONBONDED TABLE SIZE: 769 POINTS
TCL: Reinitializing atom data from files with basename 2/namdcph.md
Info: REMOVING COM VELOCITY 0.00192108 0.000646818 0.000638881
TCL: Minimizing for 300 steps
ETITLE: TS BOND ANGLE DIHED IMPRP ELECT VDW BOUNDARY MISC KINETIC TOTAL TEMP POTENTIAL TOTAL3 TEMPAVG PRESSURE GPRESSURE VOLUME PRESSAVG GPRESSAVG
ENERGY: 0 63.2480 105.0257 440.8828 0.5654 -84305.4748 99999999999.9999 0.0000 0.0000 0.0000 99999999999.9999 0.0000 99999999999.9999 99999999999.9999 0.0000 99999999999.9999 99999999999.9999 261208.0433 99999999999.9999 99999999999.9999
ENERGY: 60 433.0359 172.4688 434.2629 8.4140 -98034.9859 11738.2218 0.0000 0.0000 0.0000 -85248.5824 0.0000 -85248.5824 -85248.5824 0.0000 23163.3638 3815.3113 261208.0433 23163.3638 3815.3113
ENERGY: 120 105.0650 207.1410 430.6940 8.3024 -102602.8261 9794.3419 0.0000 0.0000 0.0000 -92057.2819 0.0000 -92057.2819 -92057.2819 0.0000 20859.3446 595.4397 261208.0433 20859.3446 595.4397
ENERGY: 180 150.8678 196.8333 428.0725 10.0448 -105687.9494 9127.5507 0.0000 0.0000 0.0000 -95774.5802 0.0000 -95774.5802 -95774.5802 0.0000 19974.8371 -924.3340 261208.0433 19974.8371 -924.3340
ENERGY: 240 159.8199 182.0485 423.5912 7.7801 -108190.5902 9041.7007 0.0000 0.0000 0.0000 -98375.6499 0.0000 -98375.6499 -98375.6499 0.0000 19629.5840 19551.9661 261208.0433 19629.5840 19551.9661
ENERGY: 300 64.6966 172.5761 421.6762 10.0107 -109176.5260 9110.3265 0.0000 0.0000 0.0000 -99397.2399 0.0000 -99397.2399 -99397.2399 0.0000 19619.4993 19534.5523 261208.0433 19619.4993 19534.5523
TCL: Setting parameter firstTimeStep to 0
TCL: Running for 500 steps
ETITLE: TS BOND ANGLE DIHED IMPRP ELECT VDW BOUNDARY MISC KINETIC TOTAL TEMP POTENTIAL TOTAL3 TEMPAVG PRESSURE GPRESSURE VOLUME PRESSAVG GPRESSAVG
ENERGY: 0 64.6966 172.5761 421.6762 10.0107 -109176.5260 9110.3265 0.0000 0.0000 15753.2883 -83643.9515 296.2357 -99397.2399 -83658.0873 296.2357 -2889.6277 -2819.3403 261208.0433 -2889.6277 -2819.3403
TCL: namdcph) Proposal rejected.
TCL: Running for 500 steps without repeating first step
ETITLE: TS BOND ANGLE DIHED IMPRP ELECT VDW BOUNDARY MISC KINETIC TOTAL TEMP POTENTIAL TOTAL3 TEMPAVG PRESSURE GPRESSURE VOLUME PRESSAVG GPRESSAVG
ENERGY: 1000 149.8572 445.6468 474.6734 27.2378 -104398.5210 9899.2996 0.0000 0.0000 13847.7310 -79554.0752 260.4023 -93401.8062 -79522.5787 239.4707 -332.8198 -291.1171 261208.0433 -477.2703 -477.2978
TCL: namdcph) Proposal rejected.
TCL: Running for 500 steps without repeating first step
TCL: namdcph) Proposal rejected.
TCL: Running for 500 steps without repeating first step
ETITLE: TS BOND ANGLE DIHED IMPRP ELECT VDW BOUNDARY MISC KINETIC TOTAL TEMP POTENTIAL TOTAL3 TEMPAVG PRESSURE GPRESSURE VOLUME PRESSAVG GPRESSAVG
ENERGY: 2000 145.8292 459.4622 476.8068 27.0902 -102076.7606 9148.7043 0.0000 0.0000 14690.5779 -77128.2901 276.2518 -91818.8680 -77092.7076 268.1209 -529.6523 -492.2897 261208.0433 -394.2329 -394.2104
TCL: namdcph) Proposal rejected.
TCL: Running for 500 steps without repeating first step
TCL: namdcph) Proposal rejected.
TCL: Running for 500 steps without repeating first step
ETITLE: TS BOND ANGLE DIHED IMPRP ELECT VDW BOUNDARY MISC KINETIC TOTAL TEMP POTENTIAL TOTAL3 TEMPAVG PRESSURE GPRESSURE VOLUME PRESSAVG GPRESSAVG
ENERGY: 3000 169.3484 493.9236 475.1690 28.7097 -100782.2481 8890.5755 0.0000 0.0000 15179.6439 -75544.8779 285.4485 -90724.5218 -75508.2398 280.7644 -401.7482 -366.7919 261208.0433 -335.0387 -334.9242
TCL: namdcph) Proposal rejected.
TCL: Running for 500 steps without repeating first step
TCL: namdcph) Proposal rejected.
TCL: Running for 500 steps without repeating first step
ETITLE: TS BOND ANGLE DIHED IMPRP ELECT VDW BOUNDARY MISC KINETIC TOTAL TEMP POTENTIAL TOTAL3 TEMPAVG PRESSURE GPRESSURE VOLUME PRESSAVG GPRESSAVG
ENERGY: 4000 173.4880 495.1023 484.5288 37.9754 -99612.6614 8506.0699 0.0000 0.0000 15443.2639 -74472.2331 290.4058 -89915.4970 -74430.4432 289.4482 -396.1326 -366.3020 261208.0433 -211.0484 -211.1620
TCL: namdcph) Proposal rejected.
TCL: Running for 500 steps without repeating first step
TCL: namdcph) Proposal rejected.
TCL: Running for 500 steps without repeating first step
ETITLE: TS BOND ANGLE DIHED IMPRP ELECT VDW BOUNDARY MISC KINETIC TOTAL TEMP POTENTIAL TOTAL3 TEMPAVG PRESSURE GPRESSURE VOLUME PRESSAVG GPRESSAVG
ENERGY: 5000 169.8878 472.7007 468.2006 30.5486 -99837.3066 8708.8341 0.0000 0.0000 15672.7118 -74314.4230 294.7205 -89987.1347 -74276.8833 293.1653 -347.8098 -321.1642 261208.0433 -197.2804 -197.1706
TCL: namdcph) Proposal rejected.
TCL: Running for 500 steps without repeating first step
TCL: namdcph) Proposal rejected.
TCL: Running for 500 steps without repeating first step
ETITLE: TS BOND ANGLE DIHED IMPRP ELECT VDW BOUNDARY MISC KINETIC TOTAL TEMP POTENTIAL TOTAL3 TEMPAVG PRESSURE GPRESSURE VOLUME PRESSAVG GPRESSAVG
ENERGY: 6000 164.3522 485.5410 452.7187 33.1820 -99514.2288 8549.2406 0.0000 0.0000 15672.5384 -74156.6559 294.7172 -89829.1943 -74114.7704 293.1849 -313.0990 -279.5962 261208.0433 -168.5069 -168.5437
TCL: namdcph) Proposal rejected.
TCL: Running for 500 steps without repeating first step
TCL: namdcph) Proposal rejected.
TCL: Running for 500 steps without repeating first step
ETITLE: TS BOND ANGLE DIHED IMPRP ELECT VDW BOUNDARY MISC KINETIC TOTAL TEMP POTENTIAL TOTAL3 TEMPAVG PRESSURE GPRESSURE VOLUME PRESSAVG GPRESSAVG
ENERGY: 7000 163.2144 470.4566 470.2607 35.4453 -99339.4185 8728.0893 0.0000 0.0000 15693.6337 -73778.3185 295.1139 -89471.9522 -73739.1203 296.0562 83.0400 112.5661 261208.0433 -64.6684 -64.5831
TCL: namdcph) Proposal rejected.
TCL: Running for 500 steps without repeating first step
TCL: namdcph) Proposal rejected.
TCL: Running for 500 steps without repeating first step
ETITLE: TS BOND ANGLE DIHED IMPRP ELECT VDW BOUNDARY MISC KINETIC TOTAL TEMP POTENTIAL TOTAL3 TEMPAVG PRESSURE GPRESSURE VOLUME PRESSAVG GPRESSAVG
ENERGY: 8000 160.5712 497.2817 479.8594 26.9111 -99782.5675 8817.3390 0.0000 0.0000 15854.4545 -73946.1505 298.1381 -89800.6050 -73905.4405 296.7056 -19.3319 13.7732 261208.0433 -75.6991 -75.7534
TCL: namdcph) Proposal rejected.
TCL: Running for 500 steps without repeating first step
TCL: namdcph) Proposal rejected.
TCL: Running for 500 steps without repeating first step
ETITLE: TS BOND ANGLE DIHED IMPRP ELECT VDW BOUNDARY MISC KINETIC TOTAL TEMP POTENTIAL TOTAL3 TEMPAVG PRESSURE GPRESSURE VOLUME PRESSAVG GPRESSAVG
ENERGY: 9000 168.7520 506.8826 480.6641 29.2301 -99631.8572 8835.8727 0.0000 0.0000 15627.4407 -73983.0150 293.8692 -89610.4557 -73940.0474 294.9426 -28.5047 8.7459 261208.0433 -149.7576 -149.9582
TCL: namdcph) Proposal rejected.
TCL: Running for 500 steps without repeating first step
TCL: namdcph) Proposal rejected.
TCL: Running for 500 steps without repeating first step
ETITLE: TS BOND ANGLE DIHED IMPRP ELECT VDW BOUNDARY MISC KINETIC TOTAL TEMP POTENTIAL TOTAL3 TEMPAVG PRESSURE GPRESSURE VOLUME PRESSAVG GPRESSAVG
ENERGY: 10000 166.7070 485.0360 471.1060 35.8255 -99449.0488 8661.4088 0.0000 0.0000 15792.6401 -73836.3255 296.9757 -89628.9655 -73793.6136 296.6442 -100.1028 -58.7706 261208.0433 -139.8165 -139.8513
TCL: namdcph) Proposal rejected.
TCL: Running for 500 steps without repeating first step
TCL: namdcph) Proposal rejected.
TCL: Running for 500 steps without repeating first step
ETITLE: TS BOND ANGLE DIHED IMPRP ELECT VDW BOUNDARY MISC KINETIC TOTAL TEMP POTENTIAL TOTAL3 TEMPAVG PRESSURE GPRESSURE VOLUME PRESSAVG GPRESSAVG
ENERGY: 11000 153.3333 506.5983 466.8716 31.2529 -99169.2493 8664.2416 0.0000 0.0000 15661.5582 -73685.3935 294.5107 -89346.9516 -73643.2853 297.0697 -71.0329 -32.3392 261208.0433 -148.1539 -148.1240
TCL: namdcph) Proposal rejected.
TCL: Running for 500 steps without repeating first step
TCL: namdcph) Proposal rejected.
TCL: Running for 500 steps without repeating first step
ETITLE: TS BOND ANGLE DIHED IMPRP ELECT VDW BOUNDARY MISC KINETIC TOTAL TEMP POTENTIAL TOTAL3 TEMPAVG PRESSURE GPRESSURE VOLUME PRESSAVG GPRESSAVG
ENERGY: 12000 167.0191 491.1090 474.9355 37.1562 -99358.8299 8610.2936 0.0000 0.0000 15658.0289 -73920.2876 294.4444 -89578.3165 -73884.2455 296.5182 -140.6848 -110.1121 261208.0433 -86.7780 -86.7164
TCL: namdcph) Proposal rejected.
TCL: Running for 500 steps without repeating first step
TCL: namdcph) Proposal rejected.
TCL: Running for 500 steps without repeating first step
ETITLE: TS BOND ANGLE DIHED IMPRP ELECT VDW BOUNDARY MISC KINETIC TOTAL TEMP POTENTIAL TOTAL3 TEMPAVG PRESSURE GPRESSURE VOLUME PRESSAVG GPRESSAVG
ENERGY: 13000 140.3609 485.9589 467.7231 34.6170 -99198.4345 8562.6152 0.0000 0.0000 15903.5240 -73603.6355 299.0608 -89507.1595 -73566.9944 296.9202 -116.1269 -78.8205 261208.0433 -97.1705 -97.2847
TCL: namdcph) Proposal rejected.
TCL: Running for 500 steps without repeating first step
TCL: namdcph) Proposal rejected.
TCL: Running for 500 steps without repeating first step
ETITLE: TS BOND ANGLE DIHED IMPRP ELECT VDW BOUNDARY MISC KINETIC TOTAL TEMP POTENTIAL TOTAL3 TEMPAVG PRESSURE GPRESSURE VOLUME PRESSAVG GPRESSAVG
ENERGY: 14000 157.9463 494.0134 468.1055 39.6976 -98983.1757 8446.2139 0.0000 0.0000 15836.8736 -73540.3255 297.8075 -89377.1990 -73505.2595 297.7579 -266.1112 -243.9550 261208.0433 -163.8315 -164.0630
TCL: namdcph) Proposal rejected.
TCL: Running for 500 steps without repeating first step
TCL: namdcph) Proposal rejected.
TCL: Running for 500 steps without repeating first step
ETITLE: TS BOND ANGLE DIHED IMPRP ELECT VDW BOUNDARY MISC KINETIC TOTAL TEMP POTENTIAL TOTAL3 TEMPAVG PRESSURE GPRESSURE VOLUME PRESSAVG GPRESSAVG
ENERGY: 15000 170.8472 527.1229 484.8188 27.6443 -99349.5066 8669.9863 0.0000 0.0000 15924.6417 -73544.4453 299.4579 -89469.0870 -73503.0066 297.6770 -146.5529 -117.7018 261208.0433 -119.9135 -119.8368
TCL: namdcph) Proposal rejected.
TCL: Running for 500 steps without repeating first step
TCL: namdcph) Proposal rejected.
TCL: Running for 500 steps without repeating first step
ETITLE: TS BOND ANGLE DIHED IMPRP ELECT VDW BOUNDARY MISC KINETIC TOTAL TEMP POTENTIAL TOTAL3 TEMPAVG PRESSURE GPRESSURE VOLUME PRESSAVG GPRESSAVG
ENERGY: 16000 159.3477 504.3099 473.7442 29.5255 -99060.0089 8387.3178 0.0000 0.0000 15885.4680 -73620.2959 298.7213 -89505.7639 -73579.6920 297.7630 -285.2082 -249.3383 261208.0433 -82.1753 -82.2904
TCL: namdcph) Proposal rejected.
TCL: Running for 500 steps without repeating first step
TCL: namdcph) Proposal rejected.
TCL: Running for 500 steps without repeating first step
ETITLE: TS BOND ANGLE DIHED IMPRP ELECT VDW BOUNDARY MISC KINETIC TOTAL TEMP POTENTIAL TOTAL3 TEMPAVG PRESSURE GPRESSURE VOLUME PRESSAVG GPRESSAVG
ENERGY: 17000 166.4039 479.0379 479.6189 30.2787 -99323.3060 8708.3515 0.0000 0.0000 15802.7099 -73656.9051 297.1651 -89459.6150 -73619.5018 297.4222 15.9725 48.5639 261208.0433 -141.5681 -141.4424
TCL: namdcph) Proposal rejected.
TCL: Running for 500 steps without repeating first step
TCL: namdcph) Proposal rejected.
TCL: Running for 500 steps without repeating first step
ETITLE: TS BOND ANGLE DIHED IMPRP ELECT VDW BOUNDARY MISC KINETIC TOTAL TEMP POTENTIAL TOTAL3 TEMPAVG PRESSURE GPRESSURE VOLUME PRESSAVG GPRESSAVG
ENERGY: 18000 159.6726 490.7007 477.9996 28.3148 -99304.5397 8665.7303 0.0000 0.0000 15699.8924 -73782.2292 295.2316 -89482.1216 -73747.5661 297.0477 -37.3927 -1.1152 261208.0433 -159.3806 -159.3421
TCL: namdcph) Proposal rejected.
TCL: Running for 500 steps without repeating first step
TCL: namdcph) Proposal rejected.
TCL: Running for 500 steps without repeating first step
ETITLE: TS BOND ANGLE DIHED IMPRP ELECT VDW BOUNDARY MISC KINETIC TOTAL TEMP POTENTIAL TOTAL3 TEMPAVG PRESSURE GPRESSURE VOLUME PRESSAVG GPRESSAVG
ENERGY: 19000 154.4665 454.0791 479.7412 36.8556 -99397.9902 8702.4972 0.0000 0.0000 15686.1001 -73884.2506 294.9722 -89570.3507 -73846.2855 296.9726 14.8577 51.1525 261208.0433 -123.6941 -123.7960
TCL: namdcph) Proposal rejected.
TCL: Running for 500 steps without repeating first step
TCL: namdcph) Proposal rejected.
TCL: Running for 500 steps without repeating first step
ETITLE: TS BOND ANGLE DIHED IMPRP ELECT VDW BOUNDARY MISC KINETIC TOTAL TEMP POTENTIAL TOTAL3 TEMPAVG PRESSURE GPRESSURE VOLUME PRESSAVG GPRESSAVG
ENERGY: 20000 155.4924 476.5654 473.0238 32.0285 -99018.0030 8459.4130 0.0000 0.0000 15611.8403 -73809.6396 293.5758 -89421.4799 -73770.5911 296.3597 -214.2907 -174.5666 261208.0433 -144.4070 -144.4151
TCL: namdcph) Proposal rejected.
TCL: Running for 500 steps without repeating first step
TCL: namdcph) Proposal rejected.
TCL: Running for 500 steps without repeating first step
ETITLE: TS BOND ANGLE DIHED IMPRP ELECT VDW BOUNDARY MISC KINETIC TOTAL TEMP POTENTIAL TOTAL3 TEMPAVG PRESSURE GPRESSURE VOLUME PRESSAVG GPRESSAVG
ENERGY: 21000 174.9471 503.7692 473.1618 35.3203 -99376.9324 8567.3178 0.0000 0.0000 15666.0580 -73956.3581 294.5954 -89622.4161 -73919.8792 295.8872 -301.0106 -266.4636 261208.0433 -221.0846 -220.9670
TCL: namdcph) Proposal rejected.
TCL: Running for 500 steps without repeating first step
TCL: namdcph) Proposal rejected.
TCL: Running for 500 steps without repeating first step
ETITLE: TS BOND ANGLE DIHED IMPRP ELECT VDW BOUNDARY MISC KINETIC TOTAL TEMP POTENTIAL TOTAL3 TEMPAVG PRESSURE GPRESSURE VOLUME PRESSAVG GPRESSAVG
ENERGY: 22000 162.9933 511.3286 476.9321 28.8216 -99331.0257 8545.3510 0.0000 0.0000 15796.8840 -73808.7151 297.0555 -89605.5991 -73773.6438 295.4549 -265.0653 -231.8458 261208.0433 -166.3907 -166.4281
TCL: namdcph) Proposal rejected.
TCL: Running for 500 steps without repeating first step
TCL: namdcph) Proposal rejected.
TCL: Running for 500 steps without repeating first step
ETITLE: TS BOND ANGLE DIHED IMPRP ELECT VDW BOUNDARY MISC KINETIC TOTAL TEMP POTENTIAL TOTAL3 TEMPAVG PRESSURE GPRESSURE VOLUME PRESSAVG GPRESSAVG
ENERGY: 23000 167.0000 481.3195 469.0907 25.7841 -99500.5140 8680.9477 0.0000 0.0000 15667.1639 -74009.2080 294.6162 -89676.3720 -73971.5218 295.5291 -214.2456 -174.9657 261208.0433 -99.1981 -99.2049
TCL: namdcph) Proposal rejected.
TCL: Running for 500 steps without repeating first step
TCL: namdcph) Proposal rejected.
TCL: Running for 500 steps without repeating first step
ETITLE: TS BOND ANGLE DIHED IMPRP ELECT VDW BOUNDARY MISC KINETIC TOTAL TEMP POTENTIAL TOTAL3 TEMPAVG PRESSURE GPRESSURE VOLUME PRESSAVG GPRESSAVG
ENERGY: 24000 186.0981 471.1884 466.2799 35.7746 -99621.0809 8729.1590 0.0000 0.0000 15690.3855 -74042.1954 295.0528 -89732.5809 -74001.2012 295.1713 -214.6066 -173.6756 261208.0433 -89.7517 -89.6153
TCL: namdcph) Proposal rejected.
TCL: Running for 500 steps without repeating first step
TCL: namdcph) Proposal rejected.
TCL: Running for 500 steps without repeating first step
ETITLE: TS BOND ANGLE DIHED IMPRP ELECT VDW BOUNDARY MISC KINETIC TOTAL TEMP POTENTIAL TOTAL3 TEMPAVG PRESSURE GPRESSURE VOLUME PRESSAVG GPRESSAVG
ENERGY: 25000 159.3881 478.9487 454.9111 26.7693 -99256.0331 8481.8723 0.0000 0.0000 15636.0981 -74018.0455 294.0320 -89654.1436 -73979.9194 294.9105 -262.5788 -234.2607 261208.0433 -144.4838 -144.3571
TCL: namdcph) Proposal rejected.
TCL: Running for 500 steps without repeating first step
TCL: namdcph) Proposal rejected.
TCL: Running for 500 steps without repeating first step
ETITLE: TS BOND ANGLE DIHED IMPRP ELECT VDW BOUNDARY MISC KINETIC TOTAL TEMP POTENTIAL TOTAL3 TEMPAVG PRESSURE GPRESSURE VOLUME PRESSAVG GPRESSAVG
ENERGY: 26000 153.7160 483.7868 476.7893 27.5962 -99482.3943 8670.3517 0.0000 0.0000 15744.7377 -73925.4166 296.0749 -89670.1543 -73888.8332 295.2229 -100.2948 -67.0566 261208.0433 -141.2411 -141.1503
TCL: namdcph) Proposal rejected.
TCL: Running for 500 steps without repeating first step
TCL: namdcph) Proposal rejected.
TCL: Running for 500 steps without repeating first step
ETITLE: TS BOND ANGLE DIHED IMPRP ELECT VDW BOUNDARY MISC KINETIC TOTAL TEMP POTENTIAL TOTAL3 TEMPAVG PRESSURE GPRESSURE VOLUME PRESSAVG GPRESSAVG
ENERGY: 27000 155.6301 460.5698 488.5047 32.1052 -99562.1873 8673.9200 0.0000 0.0000 15811.2507 -73940.2068 297.3257 -89751.4575 -73900.3958 295.8563 -195.5727 -167.6115 261208.0433 -117.5922 -117.6915
TCL: namdcph) Proposal rejected.
TCL: Running for 500 steps without repeating first step
TCL: namdcph) Proposal rejected.
TCL: Running for 500 steps without repeating first step
ETITLE: TS BOND ANGLE DIHED IMPRP ELECT VDW BOUNDARY MISC KINETIC TOTAL TEMP POTENTIAL TOTAL3 TEMPAVG PRESSURE GPRESSURE VOLUME PRESSAVG GPRESSAVG
ENERGY: 28000 148.4525 494.4569 467.5707 33.1123 -99448.4826 8719.5784 0.0000 0.0000 15737.7558 -73847.5561 295.9436 -89585.3118 -73811.0210 296.8232 37.2117 74.3222 261208.0433 -84.2562 -84.1164
TCL: namdcph) Proposal rejected.
TCL: Running for 500 steps without repeating first step
TCL: namdcph) Proposal rejected.
TCL: Running for 500 steps without repeating first step
ETITLE: TS BOND ANGLE DIHED IMPRP ELECT VDW BOUNDARY MISC KINETIC TOTAL TEMP POTENTIAL TOTAL3 TEMPAVG PRESSURE GPRESSURE VOLUME PRESSAVG GPRESSAVG
ENERGY: 29000 159.8856 494.5540 471.0911 33.5888 -99377.6319 8662.1613 0.0000 0.0000 15788.3191 -73768.0320 296.8944 -89556.3511 -73731.4093 296.7766 -23.5125 14.4128 261208.0433 -129.9174 -129.7978
TCL: namdcph) Proposal rejected.
TCL: Running for 500 steps without repeating first step
TCL: namdcph) Proposal rejected.
TCL: Running for 500 steps without repeating first step
ETITLE: TS BOND ANGLE DIHED IMPRP ELECT VDW BOUNDARY MISC KINETIC TOTAL TEMP POTENTIAL TOTAL3 TEMPAVG PRESSURE GPRESSURE VOLUME PRESSAVG GPRESSAVG
ENERGY: 30000 167.0060 484.4776 471.0081 43.3089 -99247.7989 8504.0011 0.0000 0.0000 15807.1288 -73770.8685 297.2481 -89577.9972 -73739.9956 297.3090 -322.8359 -286.1031 261208.0433 -145.5453 -145.5675
TCL: namdcph) Proposal rejected.
TCL: Running for 500 steps without repeating first step
TCL: namdcph) Proposal rejected.
TCL: Running for 500 steps without repeating first step
ETITLE: TS BOND ANGLE DIHED IMPRP ELECT VDW BOUNDARY MISC KINETIC TOTAL TEMP POTENTIAL TOTAL3 TEMPAVG PRESSURE GPRESSURE VOLUME PRESSAVG GPRESSAVG
ENERGY: 31000 153.6613 456.6331 481.5532 30.6568 -99652.5790 8769.6323 0.0000 0.0000 15843.2822 -73917.1600 297.9280 -89760.4422 -73873.5371 296.1424 -71.6547 -37.4916 261208.0433 -125.9393 -125.9370
TCL: namdcph) Proposal rejected.
TCL: Running for 500 steps without repeating first step
TCL: namdcph) Proposal rejected.
TCL: Running for 500 steps without repeating first step
ETITLE: TS BOND ANGLE DIHED IMPRP ELECT VDW BOUNDARY MISC KINETIC TOTAL TEMP POTENTIAL TOTAL3 TEMPAVG PRESSURE GPRESSURE VOLUME PRESSAVG GPRESSAVG
ENERGY: 32000 160.6933 502.7141 463.2939 34.4139 -99466.2132 8803.4144 0.0000 0.0000 15749.4725 -73752.2111 296.1639 -89501.6836 -73716.0827 296.9337 180.0926 215.4947 261208.0433 -38.9060 -38.7466
TCL: namdcph) Proposal rejected.
TCL: Running for 500 steps without repeating first step
TCL: namdcph) Proposal rejected.
TCL: Running for 500 steps without repeating first step
ETITLE: TS BOND ANGLE DIHED IMPRP ELECT VDW BOUNDARY MISC KINETIC TOTAL TEMP POTENTIAL TOTAL3 TEMPAVG PRESSURE GPRESSURE VOLUME PRESSAVG GPRESSAVG
ENERGY: 33000 140.4311 505.8172 471.6935 35.8881 -99580.9724 8754.3622 0.0000 0.0000 15970.7452 -73702.0351 300.3249 -89672.7802 -73667.0958 297.4855 2.1981 36.4614 261208.0433 -80.0697 -80.0499
TCL: namdcph) Proposal rejected.
TCL: Running for 500 steps without repeating first step
TCL: namdcph) Proposal rejected.
TCL: Running for 500 steps without repeating first step
ETITLE: TS BOND ANGLE DIHED IMPRP ELECT VDW BOUNDARY MISC KINETIC TOTAL TEMP POTENTIAL TOTAL3 TEMPAVG PRESSURE GPRESSURE VOLUME PRESSAVG GPRESSAVG
ENERGY: 34000 165.5357 465.2918 470.5846 37.5163 -99306.7687 8589.0229 0.0000 0.0000 15790.4332 -73788.3842 296.9342 -89578.8174 -73748.2505 296.6940 -266.3333 -227.9928 261208.0433 -167.1421 -167.1806
TCL: namdcph) Proposal rejected.
TCL: Running for 500 steps without repeating first step
TCL: namdcph) Proposal rejected.
TCL: Running for 500 steps without repeating first step
ETITLE: TS BOND ANGLE DIHED IMPRP ELECT VDW BOUNDARY MISC KINETIC TOTAL TEMP POTENTIAL TOTAL3 TEMPAVG PRESSURE GPRESSURE VOLUME PRESSAVG GPRESSAVG
ENERGY: 35000 159.9794 469.5223 475.2588 33.7184 -99442.7830 8701.7254 0.0000 0.0000 15820.5169 -73782.0618 297.4999 -89602.5788 -73741.5836 296.4239 -103.5559 -72.4406 261208.0433 -107.1927 -107.2703
TCL: namdcph) Proposal rejected.
TCL: Running for 500 steps without repeating first step
TCL: namdcph) Proposal rejected.
TCL: Running for 500 steps without repeating first step
ETITLE: TS BOND ANGLE DIHED IMPRP ELECT VDW BOUNDARY MISC KINETIC TOTAL TEMP POTENTIAL TOTAL3 TEMPAVG PRESSURE GPRESSURE VOLUME PRESSAVG GPRESSAVG
ENERGY: 36000 149.1758 503.2710 461.9901 35.1257 -99501.0637 8756.6424 0.0000 0.0000 15746.0965 -73848.7622 296.1005 -89594.8587 -73810.1678 295.5050 -45.7391 -13.2145 261208.0433 -176.8676 -176.9710
TCL: namdcph) Proposal rejected.
TCL: Running for 500 steps without repeating first step
TCL: namdcph) Proposal rejected.
TCL: Running for 500 steps without repeating first step
ETITLE: TS BOND ANGLE DIHED IMPRP ELECT VDW BOUNDARY MISC KINETIC TOTAL TEMP POTENTIAL TOTAL3 TEMPAVG PRESSURE GPRESSURE VOLUME PRESSAVG GPRESSAVG
ENERGY: 37000 156.7693 490.3600 476.9837 32.2612 -99768.4990 8891.3929 0.0000 0.0000 15937.6574 -73783.0744 299.7027 -89720.7318 -73747.1282 296.9112 69.9436 106.9772 261208.0433 -91.5524 -91.5028
TCL: namdcph) Proposal rejected.
TCL: Running for 500 steps without repeating first step
TCL: namdcph) Proposal rejected.
TCL: Running for 500 steps without repeating first step
ETITLE: TS BOND ANGLE DIHED IMPRP ELECT VDW BOUNDARY MISC KINETIC TOTAL TEMP POTENTIAL TOTAL3 TEMPAVG PRESSURE GPRESSURE VOLUME PRESSAVG GPRESSAVG
ENERGY: 38000 169.2297 500.1992 471.1874 34.8360 -99264.8148 8602.7148 0.0000 0.0000 15818.5431 -73668.1046 297.4628 -89486.6477 -73629.3158 297.2878 -97.5644 -67.8682 261208.0433 -63.1121 -63.0870
TCL: namdcph) Proposal rejected.
TCL: Running for 500 steps without repeating first step
TCL: namdcph) Proposal rejected.
TCL: Running for 500 steps without repeating first step
