Info: SIMULATION PARAMETERS:
Info: TIMESTEP               2
Info: NUMBER OF STEPS        0
Info: STEPS PER CYCLE        20
Info: PERIODIC CELL BASIS 1  44.256 0 0
Info: PERIODIC CELL BASIS 2  0 55.2372 0
Info: PERIODIC CELL BASIS 3  0 0 104.307
Info: PERIODIC CELL CENTER   0.236852 0.455951 2.74095
Info: WRAPPING WATERS AROUND PERIODIC BOUNDARIES ON OUTPUT.
Info: WRAPPING ALL CLUSTERS AROUND PERIODIC BOUNDARIES ON OUTPUT.
Info: FIRST LDB TIMESTEP     100
Info: LAST LDB TIMESTEP     -1
Info: HOM BACKGROUND SCALING 1
Info: PME BACKGROUND SCALING 1
Info: MIN ATOMS PER PATCH    40
Info: INITIAL TEMPERATURE    298
Info: CENTER OF MASS MOVING INITIALLY? NO
Info: DIELECTRIC             1
Info: EXCLUDE                SCALED ONE-FOUR
Info: 1-4 ELECTROSTATICS SCALED BY 1
Info: MODIFIED 1-4 VDW PARAMETERS WILL BE USED
Info: DCD FILENAME           11/Pre11_0.dcd
Info: DCD FREQUENCY          1000
Info: DCD FIRST STEP         1000
Info: DCD FILE WILL CONTAIN UNIT CELL DATA
Info: NO EXTENDED SYSTEM TRAJECTORY OUTPUT
Info: NO VELOCITY DCD OUTPUT
Info: NO FORCE DCD OUTPUT
Info: OUTPUT FILENAME        11/Pre11_0
Info: BINARY OUTPUT FILES WILL BE USED
Info: NO RESTART FILE
Info: SWITCHING ACTIVE
Info: VDW FORCE SWITCHING ACTIVE
Info: SWITCHING ON           10
Info: SWITCHING OFF          12
Info: PAIRLIST DISTANCE      14
Info: PAIRLIST SHRINK RATE   0.01
Info: PAIRLIST GROW RATE     0.01
Info: PAIRLIST TRIGGER       0.3
Info: PAIRLISTS PER CYCLE    2
Info: PAIRLISTS ENABLED
Info: MARGIN                 2
Info: HYDROGEN GROUP CUTOFF  2.5
Info: PATCH DIMENSION        18.5
Info: ENERGY OUTPUT STEPS    1000
Info: CROSSTERM ENERGY INCLUDED IN DIHEDRAL
Info: TIMING OUTPUT STEPS    10000
Info: THERMODYNAMIC INTEGRATION (TI) ON
Info: TI LAMBDA VALUE     0
Info: TI INTRA-ALCHEMICAL NON-BONDED INTERACTIONS WILL BE DECOUPLED
Info: TI INTRA-ALCHEMICAL BONDED INTERACTIONS WILL BE DECOUPLED
Info: TI VDW SHIFTING COEFFICIENT 0
Info: TI ELEC. ACTIVE FOR ANNIHILATED PARTICLES BETWEEN LAMBDA = 0 AND LAMBDA = 1
Info: TI ELEC. ACTIVE FOR EXNIHILATED PARTICLES BETWEEN LAMBDA = 0 AND LAMBDA = 1
Info: TI VDW ACTIVE FOR ANNIHILATED PARTICLES BETWEEN LAMBDA = 0 AND LAMBDA = 1
Info: TI VDW ACTIVE FOR EXNIHILATED PARTICLES BETWEEN LAMBDA = 0 AND LAMBDA = 1
Info: TI BOND ACTIVE FOR ANNIHILATED PARTICLES BETWEEN LAMBDA = 0 AND LAMBDA = 1
Info: TI BOND ACTIVE FOR EXNIHILATED PARTICLES BETWEEN LAMBDA = 0 AND LAMBDA = 1
Info: LANGEVIN DYNAMICS ACTIVE
Info: LANGEVIN TEMPERATURE   298
Info: LANGEVIN USING BBK INTEGRATOR
Info: LANGEVIN DAMPING COEFFICIENT IS 1 INVERSE PS
Info: LANGEVIN DYNAMICS NOT APPLIED TO HYDROGENS
Info: PARTICLE MESH EWALD (PME) ACTIVE
Info: PME TOLERANCE               1e-06
Info: PME EWALD COEFFICIENT       0.257952
Info: PME INTERPOLATION ORDER     4
Info: PME GRID DIMENSIONS         48 56 108
Info: PME MAXIMUM GRID SPACING    1
Info: FULL ELECTROSTATIC EVALUATION FREQUENCY      2
Info: USING VERLET I (r-RESPA) MTS SCHEME.
Info: C1 SPLITTING OF LONG RANGE ELECTROSTATICS
Info: PLACING ATOMS IN PATCHES BY HYDROGEN GROUPS
Info: RIGID BONDS TO HYDROGEN : ALL
Info:         ERROR TOLERANCE : 1e-08
Info:          MAX ITERATIONS : 100
Info: RIGID WATER USING SETTLE ALGORITHM
Info: RANDOM NUMBER SEED     1689286146
Info: USE HYDROGEN BONDS?    NO
Info: COORDINATE PDB         ../topology/preD950N.pdb
Info: STRUCTURE FILE         ../topology/preD950N.psf
Info: PARAMETER file: CHARMM format!
Info: PARAMETERS             ../../toppar/par_all36_carb.prm
Info: PARAMETERS             ../../toppar/par_all36_cgenff.prm
Info: PARAMETERS             ../../toppar/par_all36_lipid.prm
Info: PARAMETERS             ../../toppar/par_all36_na.prm
Info: PARAMETERS             ../../toppar/par_all36_prot.prm
Info: PARAMETERS             ../../toppar/par_all36_solvent.prm
Info: PARAMETERS             ../../toppar/par_cph36_prot.prm
Info: PARAMETERS             ../../toppar/toppar_all36_carb_glycopeptide.str
Info: PARAMETERS             ../../toppar/toppar_water_ions_namd.str
Info: USING ARITHMETIC MEAN TO COMBINE L-J SIGMA PARAMETERS
Info: SKIPPING rtf SECTION IN STREAM FILE
Info: SKIPPING rtf SECTION IN STREAM FILE
Info: SUMMARY OF PARAMETERS:
Info: 925 BONDS
Info: 2696 ANGLES
Info: 6608 DIHEDRAL
Info: 195 IMPROPER
Info: 6 CROSSTERM
Info: 366 VDW
Info: 6 VDW_PAIRS
Info: 0 NBTHOLE_PAIRS
Info: READING EXTRA BONDS FILE 11/namdcph.sw.extrabonds
Info: To read alchdata from file: coordinate pdb file (default)
Info: To read alchflag data from column: 5
Info: LONG-RANGE LJ: APPLYING ANALYTICAL CORRECTIONS TO ENERGY AND PRESSURE
Info: LONG-RANGE LJ: AVERAGE A0 AND B0 COEFFICIENTS 70944.9 AND 74.5871
Info: LONG-RANGE LJ: AVERAGE A1 AND B1 COEFFICIENTS 70944.9 AND 74.5871
Info: STRUCTURE SUMMARY:
Info: 25807 ATOMS
Info: 17460 BONDS
Info: 9855 ANGLES
Info: 2254 DIHEDRALS
Info: 177 IMPROPERS
Info: 54 CROSSTERMS
Info: 0 EXCLUSIONS
Info: 25336 RIGID BONDS
Info: ALCH: 0 ATOMS TO DISAPPEAR IN FINAL STATE
Info: ALCH: 0 ATOMS TO APPEAR IN FINAL STATE
Info: 52085 DEGREES OF FREEDOM
Info: 8771 HYDROGEN GROUPS
Info: 4 ATOMS IN LARGEST HYDROGEN GROUP
Info: 8771 MIGRATION GROUPS
Info: 4 ATOMS IN LARGEST MIGRATION GROUP
Info: TOTAL MASS = 156962 amu
Info: TOTAL CHARGE = 4.35859e-07 e
Info: MASS DENSITY = 1.02219 g/cm^3
Info: ATOM DENSITY = 0.101209 atoms/A^3
Info: ADDED 29563 IMPLICIT EXCLUSIONS
Info: NONBONDED TABLE R-SQUARED SPACING: 0.0625
Info: NONBONDED TABLE SIZE: 769 POINTS
Info: REMOVING COM VELOCITY 0.0134706 0.0617474 0.0359077
TCL: Setting parameter alchLambdaFreq to 1
Info: NONBONDED TABLE R-SQUARED SPACING: 0.0625
Info: NONBONDED TABLE SIZE: 769 POINTS
TCL: Setting parameter alch to off
Info: NONBONDED TABLE R-SQUARED SPACING: 0.0625
Info: NONBONDED TABLE SIZE: 769 POINTS
TCL: namdcph) initializing constant pH PSF...
TCL: WARNING! Building new atom PP1:918:HE1 with unknown mass.
TCL:          This may cause issues, for example, with mass repartitioning.
TCL: WARNING! Building new atom PP1:918:HE2 with unknown mass.
TCL:          This may cause issues, for example, with mass repartitioning.
TCL: WARNING! Building new atom PP1:936:HD1 with unknown mass.
TCL:          This may cause issues, for example, with mass repartitioning.
TCL: WARNING! Building new atom PP1:936:HD2 with unknown mass.
TCL:          This may cause issues, for example, with mass repartitioning.
TCL: cphpsfgen) creating new alchemical side chain for PP1:918:GLU
TCL: cphpsfgen) merging alchemical sidechains for PP1:918:GLU
TCL: cphpsfgen) creating new alchemical side chain for PP1:921:LYS
TCL: cphpsfgen) merging alchemical sidechains for PP1:921:LYS
TCL: cphpsfgen) creating new alchemical side chain for PP1:933:LYS
TCL: cphpsfgen) merging alchemical sidechains for PP1:933:LYS
TCL: cphpsfgen) creating new alchemical side chain for PP1:936:ASP
TCL: cphpsfgen) merging alchemical sidechains for PP1:936:ASP
TCL: cphpsfgen) creating new alchemical side chain for PP1:947:LYS
TCL: cphpsfgen) merging alchemical sidechains for PP1:947:LYS
TCL: cphpsfgen) creating new alchemical side chain for PP1:964:LYS
TCL: cphpsfgen) merging alchemical sidechains for PP1:964:LYS
TCL: namdcph) ***************************************
TCL: namdcph) CONSTANT pH MD ACTIVE
TCL: namdcph) SYSTEM pH 11
TCL: namdcph) CONSTANT pH CONFIGURATION FILE(S)
TCL: namdcph) ../../toppar/conf_cph36_prot.json
TCL: namdcph) NONEQUILIBRIUM SWITCH PARAMETERS:
TCL: namdcph) ALCHEMICAL FORCE CONSTANT 100.0 kcal/mol-A^2
TCL: namdcph) neMD/MC CRITERION TEMPERATURE 298.0
TCL: namdcph) TEMPORARY FILE INFORMATION:
TCL: namdcph) cpH TOPOLOGY FILE BASENAME 11/namdcph.md
TCL: namdcph) neMD/MC TRAJECTORY BASENAME 11/namdcph.sw
TCL: namdcph) ***************************************
TCL: namdcph) ***************************************
TCL: namdcph) TITRATABLE RESIDUE DEFINITIONS:
TCL: namdcph) HIS ASP GLU CYS LYS
TCL: namdcph) TITRATABLE SYSTEM SUMMARY:
TCL: namdcph) 6 RESIDUE(S)
TCL: namdcph) 16 PROTONATION SITE(S)
TCL: namdcph) ***************************************
TCL: namdcph) segid:resid:resname : state : pKai
TCL: namdcph) PP1:918:GLU         :     D : 5.90
TCL: namdcph) PP1:921:LYS         :     1 : 9.77
TCL: namdcph) PP1:933:LYS         :     2 : 9.54
TCL: namdcph) PP1:936:ASP         :     D : 5.26
TCL: namdcph) PP1:947:LYS         :     3 : 9.83
TCL: namdcph) PP1:964:LYS         :     2 : 9.68
TCL: namdcph) ***************************************
TCL: namdcph) *************************************************
TCL: namdcph) CONSTANT pH neMD/MC MOVES:
TCL: namdcph) MAX. ATTEMPTS PER CYCLE: 1
TCL: namdcph) ONE RESIDUE MOVES
TCL: namdcph) move label     : numsteps   weight
TCL: namdcph) PP1:918:GLU    :    75000     1.00
TCL: namdcph) PP1:921:LYS    :    75000     1.00
TCL: namdcph) PP1:933:LYS    :    75000     1.00
TCL: namdcph) PP1:936:ASP    :    75000     1.00
TCL: namdcph) PP1:947:LYS    :    75000     1.00
TCL: namdcph) PP1:964:LYS    :    75000     1.00
TCL: namdcph) *************************************************
TCL: namdcph) clearing extraBondsFile 11/namdcph.sw.extrabonds
TCL: Reloading molecular structure from file 11/namdcph.md.psf and pdb file 11/namdcph.md.pdb
Info: READING EXTRA BONDS FILE 11/namdcph.sw.extrabonds
Info: LONG-RANGE LJ: APPLYING ANALYTICAL CORRECTIONS TO ENERGY AND PRESSURE
Info: LONG-RANGE LJ: AVERAGE A AND B COEFFICIENTS 70966.8 AND 74.6091
Info: STRUCTURE SUMMARY:
Info: 25811 ATOMS
Info: 17464 BONDS
Info: 9855 ANGLES
Info: 2262 DIHEDRALS
Info: 181 IMPROPERS
Info: 54 CROSSTERMS
Info: 0 EXCLUSIONS
Info: 25340 RIGID BONDS
Info: 52093 DEGREES OF FREEDOM
Info: 8771 HYDROGEN GROUPS
Info: 4 ATOMS IN LARGEST HYDROGEN GROUP
Info: 8771 MIGRATION GROUPS
Info: 4 ATOMS IN LARGEST MIGRATION GROUP
Info: TOTAL MASS = 156966 amu
Info: TOTAL CHARGE = -4 e
Info: MASS DENSITY = 1.02222 g/cm^3
Info: ATOM DENSITY = 0.101224 atoms/A^3
Info: ADDED 29579 IMPLICIT EXCLUSIONS
Info: NONBONDED TABLE R-SQUARED SPACING: 0.0625
Info: NONBONDED TABLE SIZE: 769 POINTS
TCL: Reinitializing atom data from files with basename 11/namdcph.md
Info: REMOVING COM VELOCITY -0.000700149 -0.000240559 -0.00114726
TCL: Minimizing for 300 steps
ETITLE: TS BOND ANGLE DIHED IMPRP ELECT VDW BOUNDARY MISC KINETIC TOTAL TEMP POTENTIAL TOTAL3 TEMPAVG PRESSURE GPRESSURE VOLUME PRESSAVG GPRESSAVG
ENERGY: 0 51.9413 101.9512 448.8531 1289.5786 -79845.4502 99999999999.9999 0.0000 0.0000 0.0000 99999999999.9999 0.0000 99999999999.9999 99999999999.9999 0.0000 99999999999.9999 99999999999.9999 254987.8783 99999999999.9999 99999999999.9999
ENERGY: 60 436.7772 297.9560 441.7481 113.2112 -93131.6428 12330.0831 0.0000 0.0000 0.0000 -79511.8672 0.0000 -79511.8672 -79511.8672 0.0000 24477.9618 6077.4658 254987.8783 24477.9618 6077.4658
ENERGY: 120 95.6061 181.6194 439.3670 9.1660 -97135.4215 10364.1672 0.0000 0.0000 0.0000 -86045.4958 0.0000 -86045.4958 -86045.4958 0.0000 21958.5941 2831.6414 254987.8783 21958.5941 2831.6414
ENERGY: 180 226.5799 196.0868 436.9913 9.5287 -102718.3265 8762.6541 0.0000 0.0000 0.0000 -93086.4858 0.0000 -93086.4858 -93086.4858 0.0000 19627.1515 -583.3465 254987.8783 19627.1515 -583.3465
ENERGY: 240 58.4261 172.1075 429.3938 10.9422 -105144.3560 8717.0309 0.0000 0.0000 0.0000 -95756.4555 0.0000 -95756.4555 -95756.4555 0.0000 19340.5361 19248.1286 254987.8783 19340.5361 19248.1286
ENERGY: 300 100.5683 181.9143 427.7371 13.7271 -108353.6699 9687.7620 0.0000 0.0000 0.0000 -97941.9611 0.0000 -97941.9611 -97941.9611 0.0000 20305.1497 20240.7155 254987.8783 20305.1497 20240.7155
TCL: Setting parameter firstTimeStep to 0
TCL: Running for 500 steps
ETITLE: TS BOND ANGLE DIHED IMPRP ELECT VDW BOUNDARY MISC KINETIC TOTAL TEMP POTENTIAL TOTAL3 TEMPAVG PRESSURE GPRESSURE VOLUME PRESSAVG GPRESSAVG
ENERGY: 0 100.5683 181.9143 427.7371 13.7271 -108353.6699 9687.7620 0.0000 0.0000 15531.9827 -82409.9784 300.0806 -97941.9611 -82432.2295 300.0806 -2591.6572 -2532.3022 254987.8783 -2591.6572 -2532.3022
TCL: namdcph) Proposal rejected.
TCL: Running for 500 steps without repeating first step
ETITLE: TS BOND ANGLE DIHED IMPRP ELECT VDW BOUNDARY MISC KINETIC TOTAL TEMP POTENTIAL TOTAL3 TEMPAVG PRESSURE GPRESSURE VOLUME PRESSAVG GPRESSAVG
ENERGY: 1000 151.4089 439.7997 480.0380 31.5295 -101455.5992 9465.6189 0.0000 0.0000 13166.6344 -77720.5698 254.3817 -90887.2042 -77688.7184 233.9377 -717.8533 -681.8155 254987.8783 -538.4745 -538.5037
TCL: namdcph) Proposal rejected.
TCL: Running for 500 steps without repeating first step
TCL: namdcph) Proposal rejected.
TCL: Running for 500 steps without repeating first step
ETITLE: TS BOND ANGLE DIHED IMPRP ELECT VDW BOUNDARY MISC KINETIC TOTAL TEMP POTENTIAL TOTAL3 TEMPAVG PRESSURE GPRESSURE VOLUME PRESSAVG GPRESSAVG
ENERGY: 2000 150.1816 484.6179 511.0331 33.4622 -99342.2035 8899.6117 0.0000 0.0000 14168.8584 -75094.4387 273.7448 -89263.2970 -75052.8352 265.4455 -528.5180 -494.9728 254987.8783 -471.4363 -471.3610
TCL: namdcph) Proposal accepted, attemping a switch.
TCL: Setting parameter outputEnergies to 75000
TCL: Setting parameter dcdFreq to 0
TCL: Setting parameter firstTimestep to 0
TCL: Setting parameter alch to on
Info: NONBONDED TABLE R-SQUARED SPACING: 0.0625
Info: NONBONDED TABLE SIZE: 769 POINTS
TCL: Writing to files with basename 11/namdcph.md.
TCL: cphpsfgen) creating new alchemical side chain for PP1:947:LYS
TCL: Reloading molecular structure from file 11/namdcph.sw.psf and pdb file 11/namdcph.sw.pdb
Info: READING EXTRA BONDS FILE 11/namdcph.sw.extrabonds
Info: READ 7 EXTRA BONDS
Info: To read alchdata from file: coordinate pdb file (default)
Info: To read alchflag data from column: 5
Info: LONG-RANGE LJ: APPLYING ANALYTICAL CORRECTIONS TO ENERGY AND PRESSURE
Info: LONG-RANGE LJ: AVERAGE A0 AND B0 COEFFICIENTS 70966.8 AND 74.6091
Info: LONG-RANGE LJ: AVERAGE A1 AND B1 COEFFICIENTS 70961.3 AND 74.6036
Info: STRUCTURE SUMMARY:
Info: 25818 ATOMS
Info: 17478 BONDS
Info: 9870 ANGLES
Info: 2283 DIHEDRALS
Info: 181 IMPROPERS
Info: 54 CROSSTERMS
Info: 0 EXCLUSIONS
Info: 25345 RIGID BONDS
Info: ALCH: 7 ATOMS TO DISAPPEAR IN FINAL STATE
Info: ALCH: 7 ATOMS TO APPEAR IN FINAL STATE
Info: ALCH: 1 ANGLES LINKING INITIAL AND FINAL ATOMS DELETED
Info: ALCH: 6 DIHEDRALS LINKING INITIAL AND FINAL ATOMS DELETED
Info: 52109 DEGREES OF FREEDOM
Info: 8773 HYDROGEN GROUPS
Info: 4 ATOMS IN LARGEST HYDROGEN GROUP
Info: 8773 MIGRATION GROUPS
Info: 4 ATOMS IN LARGEST MIGRATION GROUP
Info: TOTAL MASS = 156997 amu
Info: TOTAL CHARGE = -3 e
Info: MASS DENSITY = 1.02242 g/cm^3
Info: ATOM DENSITY = 0.101252 atoms/A^3
Info: ADDED 29622 IMPLICIT EXCLUSIONS
Info: NONBONDED TABLE R-SQUARED SPACING: 0.0625
Info: NONBONDED TABLE SIZE: 769 POINTS
TCL: Reinitializing atom data from files with basename 11/namdcph.sw
Info: REMOVING COM VELOCITY -0.0308824 -0.0358551 -0.0186279
TCL: Running for 75000 steps
ETITLE: TS BOND ANGLE DIHED IMPRP ELECT VDW BOUNDARY MISC KINETIC TOTAL TEMP POTENTIAL TOTAL3 TEMPAVG PRESSURE GPRESSURE VOLUME PRESSAVG GPRESSAVG
ENERGY: 0 155.5862 484.6199 511.0331 33.4622 -99342.1954 8899.6117 0.0000 0.0000 14172.1118 -75085.7705 273.7236 -89257.8822 -75052.6778 273.7236 -527.3606 -493.9308 254987.8783 -527.3606 -493.9308
ENERGY: 75000 164.4431 492.7104 500.0746 37.4535 -96836.8195 8384.5793 0.0000 0.0000 15355.7716 -71901.7870 296.5851 -87257.5586 -71869.8344 296.8489 -313.4317 -279.3417 254987.8783 -190.1416 -190.1314
TCL: Setting parameter outputEnergies to 1000
TCL: Setting parameter dcdFreq to 1000
TCL: namdcph) PP1:947:LYS:3:P WorkCorr    41.9228 CorrWork     8.8220
TCL: Setting parameter outputEnergies to 1000
TCL: Setting parameter dcdFreq to 1000
TCL: Setting parameter firstTimestep to 2000
TCL: namdcph) Switch rejected!
TCL: Setting parameter alch to off
Info: NONBONDED TABLE R-SQUARED SPACING: 0.0625
Info: NONBONDED TABLE SIZE: 769 POINTS
TCL: namdcph) clearing extraBondsFile 11/namdcph.sw.extrabonds
TCL: Reloading molecular structure from file 11/namdcph.md.psf and pdb file 11/namdcph.md.pdb
Info: READING EXTRA BONDS FILE 11/namdcph.sw.extrabonds
Info: LONG-RANGE LJ: APPLYING ANALYTICAL CORRECTIONS TO ENERGY AND PRESSURE
Info: LONG-RANGE LJ: AVERAGE A AND B COEFFICIENTS 70966.8 AND 74.6091
Info: STRUCTURE SUMMARY:
Info: 25811 ATOMS
Info: 17464 BONDS
Info: 9855 ANGLES
Info: 2262 DIHEDRALS
Info: 181 IMPROPERS
Info: 54 CROSSTERMS
Info: 0 EXCLUSIONS
Info: 25340 RIGID BONDS
Info: 52093 DEGREES OF FREEDOM
Info: 8771 HYDROGEN GROUPS
Info: 4 ATOMS IN LARGEST HYDROGEN GROUP
Info: 8771 MIGRATION GROUPS
Info: 4 ATOMS IN LARGEST MIGRATION GROUP
Info: TOTAL MASS = 156966 amu
Info: TOTAL CHARGE = -4 e
Info: MASS DENSITY = 1.02222 g/cm^3
Info: ATOM DENSITY = 0.101224 atoms/A^3
Info: ADDED 29579 IMPLICIT EXCLUSIONS
Info: NONBONDED TABLE R-SQUARED SPACING: 0.0625
Info: NONBONDED TABLE SIZE: 769 POINTS
TCL: Reinitializing atom data from files with basename 11/namdcph.md
Info: REMOVING COM VELOCITY -0.0313297 -0.036386 -0.0191297
TCL: Running for 500 steps
ETITLE: TS BOND ANGLE DIHED IMPRP ELECT VDW BOUNDARY MISC KINETIC TOTAL TEMP POTENTIAL TOTAL3 TEMPAVG PRESSURE GPRESSURE VOLUME PRESSAVG GPRESSAVG
ENERGY: 2000 150.1816 484.6179 511.0331 33.4622 -99342.2035 8899.6117 0.0000 0.0000 14167.8952 -75095.4019 273.7262 -89263.2970 -75049.2719 273.7262 -526.9428 -493.5510 254987.8783 -526.9428 -493.5510
TCL: namdcph) Proposal rejected.
TCL: Running for 500 steps without repeating first step
ETITLE: TS BOND ANGLE DIHED IMPRP ELECT VDW BOUNDARY MISC KINETIC TOTAL TEMP POTENTIAL TOTAL3 TEMPAVG PRESSURE GPRESSURE VOLUME PRESSAVG GPRESSAVG
ENERGY: 3000 165.9158 469.7616 484.0933 25.8857 -97880.2567 8615.5474 0.0000 0.0000 14597.6634 -73521.3894 282.0294 -88119.0529 -73485.2079 279.0161 -389.4573 -360.7020 254987.8783 -346.8696 -347.0406
TCL: namdcph) Proposal rejected.
TCL: Running for 500 steps without repeating first step
TCL: namdcph) Proposal rejected.
TCL: Running for 500 steps without repeating first step
ETITLE: TS BOND ANGLE DIHED IMPRP ELECT VDW BOUNDARY MISC KINETIC TOTAL TEMP POTENTIAL TOTAL3 TEMPAVG PRESSURE GPRESSURE VOLUME PRESSAVG GPRESSAVG
ENERGY: 4000 163.3965 486.5864 482.1064 30.1061 -96967.7544 8191.1597 0.0000 0.0000 15080.6777 -72533.7216 291.3613 -87614.3993 -72499.8994 287.2347 -575.4550 -544.9280 254987.8783 -379.7039 -379.7648
TCL: namdcph) Proposal rejected.
TCL: Running for 500 steps without repeating first step
TCL: namdcph) Proposal rejected.
TCL: Running for 500 steps without repeating first step
ETITLE: TS BOND ANGLE DIHED IMPRP ELECT VDW BOUNDARY MISC KINETIC TOTAL TEMP POTENTIAL TOTAL3 TEMPAVG PRESSURE GPRESSURE VOLUME PRESSAVG GPRESSAVG
ENERGY: 5000 178.6679 487.1601 488.0241 30.7904 -97204.2690 8671.1195 0.0000 0.0000 15307.2738 -72041.2333 295.7392 -87348.5071 -72000.8224 292.4431 -64.2728 -34.1470 254987.8783 -202.4487 -202.5093
TCL: namdcph) Proposal accepted, attemping a switch.
TCL: Setting parameter outputEnergies to 75000
TCL: Setting parameter dcdFreq to 0
TCL: Setting parameter firstTimestep to 0
TCL: Setting parameter alch to on
Info: NONBONDED TABLE R-SQUARED SPACING: 0.0625
Info: NONBONDED TABLE SIZE: 769 POINTS
TCL: Writing to files with basename 11/namdcph.md.
TCL: cphpsfgen) creating new alchemical side chain for PP1:933:LYS
TCL: Reloading molecular structure from file 11/namdcph.sw.psf and pdb file 11/namdcph.sw.pdb
Info: READING EXTRA BONDS FILE 11/namdcph.sw.extrabonds
Info: READ 7 EXTRA BONDS
Info: To read alchdata from file: coordinate pdb file (default)
Info: To read alchflag data from column: 5
Info: LONG-RANGE LJ: APPLYING ANALYTICAL CORRECTIONS TO ENERGY AND PRESSURE
Info: LONG-RANGE LJ: AVERAGE A0 AND B0 COEFFICIENTS 70966.8 AND 74.6091
Info: LONG-RANGE LJ: AVERAGE A1 AND B1 COEFFICIENTS 70961.3 AND 74.6036
Info: STRUCTURE SUMMARY:
Info: 25818 ATOMS
Info: 17478 BONDS
Info: 9870 ANGLES
Info: 2283 DIHEDRALS
Info: 181 IMPROPERS
Info: 54 CROSSTERMS
Info: 0 EXCLUSIONS
Info: 25345 RIGID BONDS
Info: ALCH: 7 ATOMS TO DISAPPEAR IN FINAL STATE
Info: ALCH: 7 ATOMS TO APPEAR IN FINAL STATE
Info: ALCH: 1 ANGLES LINKING INITIAL AND FINAL ATOMS DELETED
Info: ALCH: 6 DIHEDRALS LINKING INITIAL AND FINAL ATOMS DELETED
Info: 52109 DEGREES OF FREEDOM
Info: 8773 HYDROGEN GROUPS
Info: 4 ATOMS IN LARGEST HYDROGEN GROUP
Info: 8773 MIGRATION GROUPS
Info: 4 ATOMS IN LARGEST MIGRATION GROUP
Info: TOTAL MASS = 156997 amu
Info: TOTAL CHARGE = -3 e
Info: MASS DENSITY = 1.02242 g/cm^3
Info: ATOM DENSITY = 0.101252 atoms/A^3
Info: ADDED 29622 IMPLICIT EXCLUSIONS
Info: NONBONDED TABLE R-SQUARED SPACING: 0.0625
Info: NONBONDED TABLE SIZE: 769 POINTS
TCL: Reinitializing atom data from files with basename 11/namdcph.sw
Info: REMOVING COM VELOCITY 0.0345814 -0.0585218 -0.0197981
TCL: Running for 75000 steps
ETITLE: TS BOND ANGLE DIHED IMPRP ELECT VDW BOUNDARY MISC KINETIC TOTAL TEMP POTENTIAL TOTAL3 TEMPAVG PRESSURE GPRESSURE VOLUME PRESSAVG GPRESSAVG
ENERGY: 0 184.3628 487.1622 488.0241 30.7904 -97204.2610 8671.1195 0.0000 0.0000 15314.3583 -72028.4437 295.7852 -87342.8020 -71992.2910 295.7852 -68.0914 -34.0913 254987.8783 -68.0914 -34.0913
ENERGY: 75000 158.0538 490.0674 477.6152 31.9212 -96636.6592 8628.9007 0.0000 0.0000 15292.1410 -71557.9599 295.3561 -86850.1009 -71518.2734 297.2085 165.6286 197.7212 254987.8783 -185.3169 -185.3180
TCL: Setting parameter outputEnergies to 1000
TCL: Setting parameter dcdFreq to 1000
TCL: namdcph) PP1:933:LYS:2:P WorkCorr    41.5273 CorrWork     4.2558
TCL: Setting parameter outputEnergies to 1000
TCL: Setting parameter dcdFreq to 1000
TCL: Setting parameter firstTimestep to 5000
TCL: namdcph) Switch rejected!
TCL: Setting parameter alch to off
Info: NONBONDED TABLE R-SQUARED SPACING: 0.0625
Info: NONBONDED TABLE SIZE: 769 POINTS
TCL: namdcph) clearing extraBondsFile 11/namdcph.sw.extrabonds
TCL: Reloading molecular structure from file 11/namdcph.md.psf and pdb file 11/namdcph.md.pdb
Info: READING EXTRA BONDS FILE 11/namdcph.sw.extrabonds
Info: LONG-RANGE LJ: APPLYING ANALYTICAL CORRECTIONS TO ENERGY AND PRESSURE
Info: LONG-RANGE LJ: AVERAGE A AND B COEFFICIENTS 70966.8 AND 74.6091
Info: STRUCTURE SUMMARY:
Info: 25811 ATOMS
Info: 17464 BONDS
Info: 9855 ANGLES
Info: 2262 DIHEDRALS
Info: 181 IMPROPERS
Info: 54 CROSSTERMS
Info: 0 EXCLUSIONS
Info: 25340 RIGID BONDS
Info: 52093 DEGREES OF FREEDOM
Info: 8771 HYDROGEN GROUPS
Info: 4 ATOMS IN LARGEST HYDROGEN GROUP
Info: 8771 MIGRATION GROUPS
Info: 4 ATOMS IN LARGEST MIGRATION GROUP
Info: TOTAL MASS = 156966 amu
Info: TOTAL CHARGE = -4 e
Info: MASS DENSITY = 1.02222 g/cm^3
Info: ATOM DENSITY = 0.101224 atoms/A^3
Info: ADDED 29579 IMPLICIT EXCLUSIONS
Info: NONBONDED TABLE R-SQUARED SPACING: 0.0625
Info: NONBONDED TABLE SIZE: 769 POINTS
TCL: Reinitializing atom data from files with basename 11/namdcph.md
Info: REMOVING COM VELOCITY 0.0340791 -0.0591887 -0.0201755
TCL: Running for 500 steps
ETITLE: TS BOND ANGLE DIHED IMPRP ELECT VDW BOUNDARY MISC KINETIC TOTAL TEMP POTENTIAL TOTAL3 TEMPAVG PRESSURE GPRESSURE VOLUME PRESSAVG GPRESSAVG
ENERGY: 5000 178.6679 487.1601 488.0241 30.7904 -97204.2690 8671.1195 0.0000 0.0000 15305.8609 -72042.6462 295.7119 -87348.5071 -72006.3540 295.7119 -67.7758 -33.8046 254987.8783 -67.7758 -33.8046
TCL: namdcph) Proposal rejected.
TCL: Running for 500 steps without repeating first step
ETITLE: TS BOND ANGLE DIHED IMPRP ELECT VDW BOUNDARY MISC KINETIC TOTAL TEMP POTENTIAL TOTAL3 TEMPAVG PRESSURE GPRESSURE VOLUME PRESSAVG GPRESSAVG
ENERGY: 6000 163.8267 535.9852 482.0569 34.6773 -96598.6521 8212.5346 0.0000 0.0000 15407.7403 -71761.8310 297.6802 -87169.5714 -71729.2324 295.2225 -498.6658 -459.4392 254987.8783 -190.7104 -190.6541
TCL: namdcph) Proposal rejected.
TCL: Running for 500 steps without repeating first step
TCL: namdcph) Proposal rejected.
TCL: Running for 500 steps without repeating first step
ETITLE: TS BOND ANGLE DIHED IMPRP ELECT VDW BOUNDARY MISC KINETIC TOTAL TEMP POTENTIAL TOTAL3 TEMPAVG PRESSURE GPRESSURE VOLUME PRESSAVG GPRESSAVG
ENERGY: 7000 157.8150 514.8521 495.6751 26.8857 -96342.0707 8288.5493 0.0000 0.0000 15462.8609 -71395.4326 298.7452 -86858.2935 -71361.5481 297.5225 -198.4543 -164.8938 254987.8783 -179.8389 -179.8485
TCL: namdcph) Proposal rejected.
TCL: Running for 500 steps without repeating first step
TCL: namdcph) Proposal rejected.
TCL: Running for 500 steps without repeating first step
ETITLE: TS BOND ANGLE DIHED IMPRP ELECT VDW BOUNDARY MISC KINETIC TOTAL TEMP POTENTIAL TOTAL3 TEMPAVG PRESSURE GPRESSURE VOLUME PRESSAVG GPRESSAVG
ENERGY: 8000 142.3709 480.9283 495.1524 29.2836 -96571.6259 8445.4075 0.0000 0.0000 15422.1323 -71556.3508 297.9583 -86978.4832 -71513.3501 297.9787 -39.3351 -10.7302 254987.8783 -155.0808 -155.1125
TCL: namdcph) Proposal rejected.
TCL: Running for 500 steps without repeating first step
TCL: namdcph) Proposal rejected.
TCL: Running for 500 steps without repeating first step
ETITLE: TS BOND ANGLE DIHED IMPRP ELECT VDW BOUNDARY MISC KINETIC TOTAL TEMP POTENTIAL TOTAL3 TEMPAVG PRESSURE GPRESSURE VOLUME PRESSAVG GPRESSAVG
ENERGY: 9000 154.6991 487.0618 472.8549 34.8693 -96484.6064 8378.7682 0.0000 0.0000 15400.9303 -71555.4228 297.5486 -86956.3530 -71517.8444 297.5523 -174.3025 -139.0388 254987.8783 -161.4272 -161.2911
TCL: namdcph) Proposal rejected.
TCL: Running for 500 steps without repeating first step
TCL: namdcph) Proposal rejected.
TCL: Running for 500 steps without repeating first step
ETITLE: TS BOND ANGLE DIHED IMPRP ELECT VDW BOUNDARY MISC KINETIC TOTAL TEMP POTENTIAL TOTAL3 TEMPAVG PRESSURE GPRESSURE VOLUME PRESSAVG GPRESSAVG
ENERGY: 10000 151.6224 472.7275 491.8826 33.1375 -96413.9951 8319.4067 0.0000 0.0000 15258.1014 -71687.1171 294.7892 -86945.2185 -71654.6209 297.6672 -193.8984 -159.2501 254987.8783 -180.9409 -180.9211
TCL: namdcph) Proposal rejected.
TCL: Running for 500 steps without repeating first step
TCL: namdcph) Proposal rejected.
TCL: Running for 500 steps without repeating first step
ETITLE: TS BOND ANGLE DIHED IMPRP ELECT VDW BOUNDARY MISC KINETIC TOTAL TEMP POTENTIAL TOTAL3 TEMPAVG PRESSURE GPRESSURE VOLUME PRESSAVG GPRESSAVG
ENERGY: 11000 158.5323 470.5144 483.2390 30.9843 -96409.1082 8368.7009 0.0000 0.0000 15311.0075 -71586.1297 295.8113 -86897.1372 -71552.7913 296.9373 -181.6998 -157.0013 254987.8783 -204.2825 -204.2452
TCL: namdcph) Proposal rejected.
TCL: Running for 500 steps without repeating first step
TCL: namdcph) Proposal rejected.
TCL: Running for 500 steps without repeating first step
ETITLE: TS BOND ANGLE DIHED IMPRP ELECT VDW BOUNDARY MISC KINETIC TOTAL TEMP POTENTIAL TOTAL3 TEMPAVG PRESSURE GPRESSURE VOLUME PRESSAVG GPRESSAVG
ENERGY: 12000 162.6706 478.4118 489.8840 30.2227 -96376.7629 8334.9027 0.0000 0.0000 15431.1212 -71449.5499 298.1319 -86880.6711 -71416.5017 297.1945 -226.5435 -190.9757 254987.8783 -206.5099 -206.5372
TCL: namdcph) Proposal rejected.
TCL: Running for 500 steps without repeating first step
TCL: namdcph) Proposal rejected.
TCL: Running for 500 steps without repeating first step
ETITLE: TS BOND ANGLE DIHED IMPRP ELECT VDW BOUNDARY MISC KINETIC TOTAL TEMP POTENTIAL TOTAL3 TEMPAVG PRESSURE GPRESSURE VOLUME PRESSAVG GPRESSAVG
ENERGY: 13000 169.5693 493.6019 490.6849 41.1565 -96582.1665 8469.6660 0.0000 0.0000 15345.8562 -71571.6317 296.4846 -86917.4879 -71536.2015 297.0113 -49.6975 -11.7311 254987.8783 -172.3649 -172.2223
TCL: namdcph) Proposal rejected.
TCL: Running for 500 steps without repeating first step
TCL: namdcph) Proposal rejected.
TCL: Running for 500 steps without repeating first step
ETITLE: TS BOND ANGLE DIHED IMPRP ELECT VDW BOUNDARY MISC KINETIC TOTAL TEMP POTENTIAL TOTAL3 TEMPAVG PRESSURE GPRESSURE VOLUME PRESSAVG GPRESSAVG
ENERGY: 14000 163.8299 497.3936 479.1536 34.0286 -96493.5830 8211.2219 0.0000 0.0000 15481.7939 -71626.1615 299.1109 -87107.9554 -71588.0380 298.3975 -526.4294 -495.2231 254987.8783 -131.6428 -131.5807
TCL: namdcph) Proposal rejected.
TCL: Running for 500 steps without repeating first step
TCL: namdcph) Proposal rejected.
TCL: Running for 500 steps without repeating first step
ETITLE: TS BOND ANGLE DIHED IMPRP ELECT VDW BOUNDARY MISC KINETIC TOTAL TEMP POTENTIAL TOTAL3 TEMPAVG PRESSURE GPRESSURE VOLUME PRESSAVG GPRESSAVG
ENERGY: 15000 136.4478 493.3752 482.0768 29.7854 -96334.0733 8269.6910 0.0000 0.0000 15323.7740 -71598.9232 296.0580 -86922.6972 -71558.0585 297.1472 -135.7010 -99.8355 254987.8783 -235.0408 -235.0809
TCL: namdcph) Proposal rejected.
TCL: Running for 500 steps without repeating first step
TCL: namdcph) Proposal rejected.
TCL: Running for 500 steps without repeating first step
ETITLE: TS BOND ANGLE DIHED IMPRP ELECT VDW BOUNDARY MISC KINETIC TOTAL TEMP POTENTIAL TOTAL3 TEMPAVG PRESSURE GPRESSURE VOLUME PRESSAVG GPRESSAVG
ENERGY: 16000 179.4507 482.0904 485.6531 31.7437 -96389.1708 8290.2187 0.0000 0.0000 15501.0539 -71418.9604 299.4830 -86920.0142 -71383.4948 298.4266 -349.5324 -311.7065 254987.8783 -118.7743 -118.7545
TCL: namdcph) Proposal rejected.
TCL: Running for 500 steps without repeating first step
TCL: namdcph) Proposal rejected.
TCL: Running for 500 steps without repeating first step
ETITLE: TS BOND ANGLE DIHED IMPRP ELECT VDW BOUNDARY MISC KINETIC TOTAL TEMP POTENTIAL TOTAL3 TEMPAVG PRESSURE GPRESSURE VOLUME PRESSAVG GPRESSAVG
ENERGY: 17000 155.8934 495.1215 484.0332 26.1749 -96197.4269 8222.7934 0.0000 0.0000 15460.4506 -71352.9599 298.6986 -86813.4105 -71316.0953 297.8016 -288.8582 -261.8904 254987.8783 -157.5833 -157.5460
TCL: namdcph) Proposal rejected.
TCL: Running for 500 steps without repeating first step
TCL: namdcph) Proposal rejected.
TCL: Running for 500 steps without repeating first step
ETITLE: TS BOND ANGLE DIHED IMPRP ELECT VDW BOUNDARY MISC KINETIC TOTAL TEMP POTENTIAL TOTAL3 TEMPAVG PRESSURE GPRESSURE VOLUME PRESSAVG GPRESSAVG
ENERGY: 18000 173.5045 513.2595 500.9516 37.4262 -96455.0311 8314.2904 0.0000 0.0000 15313.9870 -71601.6118 295.8689 -86915.5988 -71563.9939 297.8086 -277.3545 -248.6528 254987.8783 -237.3523 -237.3522
TCL: namdcph) Proposal rejected.
TCL: Running for 500 steps without repeating first step
TCL: namdcph) Proposal rejected.
TCL: Running for 500 steps without repeating first step
ETITLE: TS BOND ANGLE DIHED IMPRP ELECT VDW BOUNDARY MISC KINETIC TOTAL TEMP POTENTIAL TOTAL3 TEMPAVG PRESSURE GPRESSURE VOLUME PRESSAVG GPRESSAVG
ENERGY: 19000 154.0357 493.0803 483.8969 35.6129 -96481.4893 8435.9771 0.0000 0.0000 15472.1972 -71406.6892 298.9255 -86878.8864 -71371.7955 297.4037 -53.3162 -17.7028 254987.8783 -188.0496 -188.0153
TCL: namdcph) Proposal rejected.
TCL: Running for 500 steps without repeating first step
TCL: namdcph) Proposal rejected.
TCL: Running for 500 steps without repeating first step
ETITLE: TS BOND ANGLE DIHED IMPRP ELECT VDW BOUNDARY MISC KINETIC TOTAL TEMP POTENTIAL TOTAL3 TEMPAVG PRESSURE GPRESSURE VOLUME PRESSAVG GPRESSAVG
ENERGY: 20000 166.8433 513.0503 474.2416 40.8612 -96496.5319 8379.4444 0.0000 0.0000 15510.5179 -71411.5733 299.6659 -86922.0911 -71373.1917 298.3879 -164.1722 -135.9605 254987.8783 -201.1212 -201.1105
TCL: namdcph) Proposal rejected.
TCL: Running for 500 steps without repeating first step
TCL: namdcph) Proposal rejected.
TCL: Running for 500 steps without repeating first step
ETITLE: TS BOND ANGLE DIHED IMPRP ELECT VDW BOUNDARY MISC KINETIC TOTAL TEMP POTENTIAL TOTAL3 TEMPAVG PRESSURE GPRESSURE VOLUME PRESSAVG GPRESSAVG
ENERGY: 21000 170.4120 484.7951 490.6961 28.4998 -96262.2514 8431.6028 0.0000 0.0000 15301.7100 -71354.5356 295.6317 -86656.2456 -71320.1620 299.3646 -36.6634 -5.7779 254987.8783 -100.5922 -100.5485
TCL: namdcph) Proposal rejected.
TCL: Running for 500 steps without repeating first step
TCL: namdcph) Proposal rejected.
TCL: Running for 500 steps without repeating first step
ETITLE: TS BOND ANGLE DIHED IMPRP ELECT VDW BOUNDARY MISC KINETIC TOTAL TEMP POTENTIAL TOTAL3 TEMPAVG PRESSURE GPRESSURE VOLUME PRESSAVG GPRESSAVG
ENERGY: 22000 146.6475 502.5669 484.8515 30.4841 -96270.5662 8254.7968 0.0000 0.0000 15341.4452 -71509.7742 296.3994 -86851.2194 -71476.5092 298.1181 -209.4029 -179.1647 254987.8783 -188.9710 -188.8243
TCL: namdcph) Proposal rejected.
TCL: Running for 500 steps without repeating first step
TCL: namdcph) Proposal rejected.
TCL: Running for 500 steps without repeating first step
ETITLE: TS BOND ANGLE DIHED IMPRP ELECT VDW BOUNDARY MISC KINETIC TOTAL TEMP POTENTIAL TOTAL3 TEMPAVG PRESSURE GPRESSURE VOLUME PRESSAVG GPRESSAVG
ENERGY: 23000 150.0053 531.2978 485.0563 36.3209 -96126.5832 8204.2833 0.0000 0.0000 15375.8477 -71343.7719 297.0640 -86719.6197 -71307.8439 299.0274 -357.3433 -320.4394 254987.8783 -202.6703 -202.7233
TCL: namdcph) Proposal rejected.
TCL: Running for 500 steps without repeating first step
TCL: namdcph) Proposal rejected.
TCL: Running for 500 steps without repeating first step
ETITLE: TS BOND ANGLE DIHED IMPRP ELECT VDW BOUNDARY MISC KINETIC TOTAL TEMP POTENTIAL TOTAL3 TEMPAVG PRESSURE GPRESSURE VOLUME PRESSAVG GPRESSAVG
ENERGY: 24000 170.2419 465.4113 487.8185 31.8777 -96379.4796 8365.2226 0.0000 0.0000 15535.6159 -71323.2918 300.1508 -86858.9077 -71287.3792 299.4423 2.4491 41.7782 254987.8783 -191.1800 -191.2762
TCL: namdcph) Proposal rejected.
TCL: Running for 500 steps without repeating first step
TCL: namdcph) Proposal rejected.
TCL: Running for 500 steps without repeating first step
ETITLE: TS BOND ANGLE DIHED IMPRP ELECT VDW BOUNDARY MISC KINETIC TOTAL TEMP POTENTIAL TOTAL3 TEMPAVG PRESSURE GPRESSURE VOLUME PRESSAVG GPRESSAVG
ENERGY: 25000 170.1376 484.9760 494.0316 29.9994 -96883.3411 8516.6993 0.0000 0.0000 15552.3002 -71635.1970 300.4731 -87187.4972 -71598.7336 299.1589 -220.6071 -178.4301 254987.8783 -115.1724 -115.1714
TCL: namdcph) Proposal rejected.
TCL: Running for 500 steps without repeating first step
TCL: namdcph) Proposal rejected.
TCL: Running for 500 steps without repeating first step
ETITLE: TS BOND ANGLE DIHED IMPRP ELECT VDW BOUNDARY MISC KINETIC TOTAL TEMP POTENTIAL TOTAL3 TEMPAVG PRESSURE GPRESSURE VOLUME PRESSAVG GPRESSAVG
ENERGY: 26000 148.5139 519.6725 494.2719 32.2101 -96404.8157 8347.2937 0.0000 0.0000 15540.3763 -71322.4774 300.2428 -86862.8537 -71285.8809 297.8691 -0.8290 31.8156 254987.8783 -198.8811 -198.8357
TCL: namdcph) Proposal rejected.
TCL: Running for 500 steps without repeating first step
TCL: namdcph) Proposal rejected.
TCL: Running for 500 steps without repeating first step
ETITLE: TS BOND ANGLE DIHED IMPRP ELECT VDW BOUNDARY MISC KINETIC TOTAL TEMP POTENTIAL TOTAL3 TEMPAVG PRESSURE GPRESSURE VOLUME PRESSAVG GPRESSAVG
ENERGY: 27000 185.3486 487.6813 461.4705 32.3467 -96476.0448 8342.2461 0.0000 0.0000 15291.5466 -71675.4050 295.4353 -86966.9516 -71636.9600 297.8077 -295.4710 -265.0700 254987.8783 -121.7617 -121.8675
TCL: namdcph) Proposal rejected.
TCL: Running for 500 steps without repeating first step
TCL: namdcph) Proposal rejected.
TCL: Running for 500 steps without repeating first step
ETITLE: TS BOND ANGLE DIHED IMPRP ELECT VDW BOUNDARY MISC KINETIC TOTAL TEMP POTENTIAL TOTAL3 TEMPAVG PRESSURE GPRESSURE VOLUME PRESSAVG GPRESSAVG
ENERGY: 28000 140.9971 499.2262 482.0533 28.6365 -96358.4861 8325.5736 0.0000 0.0000 15313.5823 -71568.4170 295.8611 -86881.9993 -71526.5676 297.4878 -117.5199 -84.8989 254987.8783 -112.1361 -112.1681
TCL: namdcph) Proposal rejected.
TCL: Running for 500 steps without repeating first step
TCL: namdcph) Proposal rejected.
TCL: Running for 500 steps without repeating first step
ETITLE: TS BOND ANGLE DIHED IMPRP ELECT VDW BOUNDARY MISC KINETIC TOTAL TEMP POTENTIAL TOTAL3 TEMPAVG PRESSURE GPRESSURE VOLUME PRESSAVG GPRESSAVG
ENERGY: 29000 151.4601 462.9667 483.6076 30.2208 -96412.9694 8225.6612 0.0000 0.0000 15401.4888 -71657.5642 297.5594 -87059.0530 -71620.6698 297.0582 -403.5416 -372.0905 254987.8783 -142.6482 -142.6049
TCL: namdcph) Proposal rejected.
TCL: Running for 500 steps without repeating first step
TCL: namdcph) Proposal rejected.
TCL: Running for 500 steps without repeating first step
ETITLE: TS BOND ANGLE DIHED IMPRP ELECT VDW BOUNDARY MISC KINETIC TOTAL TEMP POTENTIAL TOTAL3 TEMPAVG PRESSURE GPRESSURE VOLUME PRESSAVG GPRESSAVG
ENERGY: 30000 154.7016 485.4358 475.1239 33.0184 -96468.8629 8334.5587 0.0000 0.0000 15410.5546 -71575.4698 297.7346 -86986.0244 -71539.0454 297.0510 -183.0225 -143.8639 254987.8783 -188.3279 -188.2509
TCL: namdcph) Proposal rejected.
TCL: Running for 500 steps without repeating first step
TCL: namdcph) Proposal rejected.
TCL: Running for 500 steps without repeating first step
ETITLE: TS BOND ANGLE DIHED IMPRP ELECT VDW BOUNDARY MISC KINETIC TOTAL TEMP POTENTIAL TOTAL3 TEMPAVG PRESSURE GPRESSURE VOLUME PRESSAVG GPRESSAVG
ENERGY: 31000 169.9253 506.9270 485.5378 36.6861 -96425.3587 8289.4396 0.0000 0.0000 15402.1208 -71534.7222 297.5716 -86936.8430 -71496.0914 297.5843 -286.7430 -259.4558 254987.8783 -190.8013 -190.8386
TCL: namdcph) Proposal rejected.
TCL: Running for 500 steps without repeating first step
TCL: namdcph) Proposal rejected.
TCL: Running for 500 steps without repeating first step
ETITLE: TS BOND ANGLE DIHED IMPRP ELECT VDW BOUNDARY MISC KINETIC TOTAL TEMP POTENTIAL TOTAL3 TEMPAVG PRESSURE GPRESSURE VOLUME PRESSAVG GPRESSAVG
ENERGY: 32000 147.0048 516.4198 473.7290 29.3765 -96383.3350 8300.7964 0.0000 0.0000 15488.1216 -71427.8870 299.2332 -86916.0085 -71395.6736 298.0090 -174.9823 -144.0464 254987.8783 -192.4474 -192.4258
TCL: namdcph) Proposal rejected.
TCL: Running for 500 steps without repeating first step
TCL: namdcph) Proposal rejected.
TCL: Running for 500 steps without repeating first step
ETITLE: TS BOND ANGLE DIHED IMPRP ELECT VDW BOUNDARY MISC KINETIC TOTAL TEMP POTENTIAL TOTAL3 TEMPAVG PRESSURE GPRESSURE VOLUME PRESSAVG GPRESSAVG
ENERGY: 33000 163.8860 486.7540 477.2507 35.0629 -96353.6205 8352.8457 0.0000 0.0000 15376.7191 -71461.1020 297.0809 -86837.8212 -71426.8032 298.6286 -160.4722 -133.1920 254987.8783 -204.3739 -204.4529
TCL: namdcph) Proposal rejected.
TCL: Running for 500 steps without repeating first step
TCL: namdcph) Proposal rejected.
TCL: Running for 500 steps without repeating first step
ETITLE: TS BOND ANGLE DIHED IMPRP ELECT VDW BOUNDARY MISC KINETIC TOTAL TEMP POTENTIAL TOTAL3 TEMPAVG PRESSURE GPRESSURE VOLUME PRESSAVG GPRESSAVG
ENERGY: 34000 170.5808 489.1087 485.8962 39.2156 -96582.3101 8546.2648 0.0000 0.0000 15453.6404 -71397.6036 298.5670 -86851.2440 -71361.1507 298.7901 -29.8569 2.7677 254987.8783 -164.9572 -164.9849
TCL: namdcph) Proposal rejected.
TCL: Running for 500 steps without repeating first step
TCL: namdcph) Proposal rejected.
TCL: Running for 500 steps without repeating first step
Info: NONBONDED TABLE R-SQUARED SPACING: 0.0625
Info: NONBONDED TABLE SIZE: 769 POINTS
Info: READING EXTRA BONDS FILE 11/namdcph.sw.extrabonds
Info: READ 7 EXTRA BONDS
Info: To read alchdata from file: coordinate pdb file (default)
Info: To read alchflag data from column: 5
Info: LONG-RANGE LJ: APPLYING ANALYTICAL CORRECTIONS TO ENERGY AND PRESSURE
Info: LONG-RANGE LJ: AVERAGE A0 AND B0 COEFFICIENTS 70966.8 AND 74.6091
Info: LONG-RANGE LJ: AVERAGE A1 AND B1 COEFFICIENTS 70961.3 AND 74.6036
Info: STRUCTURE SUMMARY:
Info: 25818 ATOMS
Info: 17478 BONDS
Info: 9870 ANGLES
Info: 2283 DIHEDRALS
Info: 181 IMPROPERS
Info: 54 CROSSTERMS
Info: 0 EXCLUSIONS
Info: 25345 RIGID BONDS
Info: ALCH: 7 ATOMS TO DISAPPEAR IN FINAL STATE
Info: ALCH: 7 ATOMS TO APPEAR IN FINAL STATE
Info: ALCH: 1 ANGLES LINKING INITIAL AND FINAL ATOMS DELETED
Info: ALCH: 6 DIHEDRALS LINKING INITIAL AND FINAL ATOMS DELETED
Info: 52109 DEGREES OF FREEDOM
Info: 8773 HYDROGEN GROUPS
Info: 4 ATOMS IN LARGEST HYDROGEN GROUP
Info: 8773 MIGRATION GROUPS
Info: 4 ATOMS IN LARGEST MIGRATION GROUP
Info: TOTAL MASS = 156997 amu
Info: TOTAL CHARGE = -3 e
Info: MASS DENSITY = 1.02242 g/cm^3
Info: ATOM DENSITY = 0.101252 atoms/A^3
Info: ADDED 29622 IMPLICIT EXCLUSIONS
Info: NONBONDED TABLE R-SQUARED SPACING: 0.0625
Info: NONBONDED TABLE SIZE: 769 POINTS
Info: REMOVING COM VELOCITY 0.0434954 0.0456393 -0.0171487
Info: NONBONDED TABLE R-SQUARED SPACING: 0.0625
Info: NONBONDED TABLE SIZE: 769 POINTS
Info: READING EXTRA BONDS FILE 11/namdcph.sw.extrabonds
Info: LONG-RANGE LJ: APPLYING ANALYTICAL CORRECTIONS TO ENERGY AND PRESSURE
Info: LONG-RANGE LJ: AVERAGE A AND B COEFFICIENTS 70966.8 AND 74.6091
Info: STRUCTURE SUMMARY:
Info: 25811 ATOMS
Info: 17464 BONDS
Info: 9855 ANGLES
Info: 2262 DIHEDRALS
Info: 181 IMPROPERS
Info: 54 CROSSTERMS
Info: 0 EXCLUSIONS
Info: 25340 RIGID BONDS
Info: 52093 DEGREES OF FREEDOM
Info: 8771 HYDROGEN GROUPS
Info: 4 ATOMS IN LARGEST HYDROGEN GROUP
Info: 8771 MIGRATION GROUPS
Info: 4 ATOMS IN LARGEST MIGRATION GROUP
Info: TOTAL MASS = 156966 amu
Info: TOTAL CHARGE = -4 e
Info: MASS DENSITY = 1.02222 g/cm^3
Info: ATOM DENSITY = 0.101224 atoms/A^3
Info: ADDED 29579 IMPLICIT EXCLUSIONS
Info: NONBONDED TABLE R-SQUARED SPACING: 0.0625
Info: NONBONDED TABLE SIZE: 769 POINTS
Info: REMOVING COM VELOCITY 0.0433724 0.0457165 -0.017309
Info: NONBONDED TABLE R-SQUARED SPACING: 0.0625
Info: NONBONDED TABLE SIZE: 769 POINTS
Info: READING EXTRA BONDS FILE 11/namdcph.sw.extrabonds
Info: READ 7 EXTRA BONDS
Info: To read alchdata from file: coordinate pdb file (default)
Info: To read alchflag data from column: 5
Info: LONG-RANGE LJ: APPLYING ANALYTICAL CORRECTIONS TO ENERGY AND PRESSURE
Info: LONG-RANGE LJ: AVERAGE A0 AND B0 COEFFICIENTS 70966.8 AND 74.6091
Info: LONG-RANGE LJ: AVERAGE A1 AND B1 COEFFICIENTS 70961.3 AND 74.6036
Info: STRUCTURE SUMMARY:
Info: 25818 ATOMS
Info: 17478 BONDS
Info: 9870 ANGLES
Info: 2283 DIHEDRALS
Info: 181 IMPROPERS
Info: 54 CROSSTERMS
Info: 0 EXCLUSIONS
Info: 25345 RIGID BONDS
Info: ALCH: 7 ATOMS TO DISAPPEAR IN FINAL STATE
Info: ALCH: 7 ATOMS TO APPEAR IN FINAL STATE
Info: ALCH: 1 ANGLES LINKING INITIAL AND FINAL ATOMS DELETED
Info: ALCH: 6 DIHEDRALS LINKING INITIAL AND FINAL ATOMS DELETED
Info: 52109 DEGREES OF FREEDOM
Info: 8773 HYDROGEN GROUPS
Info: 4 ATOMS IN LARGEST HYDROGEN GROUP
Info: 8773 MIGRATION GROUPS
Info: 4 ATOMS IN LARGEST MIGRATION GROUP
Info: TOTAL MASS = 156997 amu
Info: TOTAL CHARGE = -3 e
Info: MASS DENSITY = 1.02242 g/cm^3
Info: ATOM DENSITY = 0.101252 atoms/A^3
Info: ADDED 29622 IMPLICIT EXCLUSIONS
Info: NONBONDED TABLE R-SQUARED SPACING: 0.0625
Info: NONBONDED TABLE SIZE: 769 POINTS
Info: REMOVING COM VELOCITY 0.0106868 0.00888937 -0.028896
Info: NONBONDED TABLE R-SQUARED SPACING: 0.0625
Info: NONBONDED TABLE SIZE: 769 POINTS
Info: READING EXTRA BONDS FILE 11/namdcph.sw.extrabonds
Info: LONG-RANGE LJ: APPLYING ANALYTICAL CORRECTIONS TO ENERGY AND PRESSURE
Info: LONG-RANGE LJ: AVERAGE A AND B COEFFICIENTS 70966.8 AND 74.6091
Info: STRUCTURE SUMMARY:
Info: 25811 ATOMS
Info: 17464 BONDS
Info: 9855 ANGLES
Info: 2262 DIHEDRALS
Info: 181 IMPROPERS
Info: 54 CROSSTERMS
Info: 0 EXCLUSIONS
Info: 25340 RIGID BONDS
Info: 52093 DEGREES OF FREEDOM
Info: 8771 HYDROGEN GROUPS
Info: 4 ATOMS IN LARGEST HYDROGEN GROUP
Info: 8771 MIGRATION GROUPS
Info: 4 ATOMS IN LARGEST MIGRATION GROUP
Info: TOTAL MASS = 156966 amu
Info: TOTAL CHARGE = -4 e
Info: MASS DENSITY = 1.02222 g/cm^3
Info: ATOM DENSITY = 0.101224 atoms/A^3
Info: ADDED 29579 IMPLICIT EXCLUSIONS
Info: NONBONDED TABLE R-SQUARED SPACING: 0.0625
Info: NONBONDED TABLE SIZE: 769 POINTS
Info: REMOVING COM VELOCITY 0.0096717 0.00935293 -0.0290672
Info: NONBONDED TABLE R-SQUARED SPACING: 0.0625
Info: NONBONDED TABLE SIZE: 769 POINTS
Info: READING EXTRA BONDS FILE 11/namdcph.sw.extrabonds
Info: READ 7 EXTRA BONDS
Info: To read alchdata from file: coordinate pdb file (default)
Info: To read alchflag data from column: 5
Info: LONG-RANGE LJ: APPLYING ANALYTICAL CORRECTIONS TO ENERGY AND PRESSURE
Info: LONG-RANGE LJ: AVERAGE A0 AND B0 COEFFICIENTS 70966.8 AND 74.6091
Info: LONG-RANGE LJ: AVERAGE A1 AND B1 COEFFICIENTS 70961.3 AND 74.6036
Info: STRUCTURE SUMMARY:
Info: 25818 ATOMS
Info: 17478 BONDS
Info: 9870 ANGLES
Info: 2283 DIHEDRALS
Info: 181 IMPROPERS
Info: 54 CROSSTERMS
Info: 0 EXCLUSIONS
Info: 25345 RIGID BONDS
Info: ALCH: 7 ATOMS TO DISAPPEAR IN FINAL STATE
Info: ALCH: 7 ATOMS TO APPEAR IN FINAL STATE
Info: ALCH: 1 ANGLES LINKING INITIAL AND FINAL ATOMS DELETED
Info: ALCH: 6 DIHEDRALS LINKING INITIAL AND FINAL ATOMS DELETED
Info: 52109 DEGREES OF FREEDOM
Info: 8773 HYDROGEN GROUPS
Info: 4 ATOMS IN LARGEST HYDROGEN GROUP
Info: 8773 MIGRATION GROUPS
Info: 4 ATOMS IN LARGEST MIGRATION GROUP
Info: TOTAL MASS = 156997 amu
Info: TOTAL CHARGE = -3 e
Info: MASS DENSITY = 1.02242 g/cm^3
Info: ATOM DENSITY = 0.101252 atoms/A^3
Info: ADDED 29622 IMPLICIT EXCLUSIONS
Info: NONBONDED TABLE R-SQUARED SPACING: 0.0625
Info: NONBONDED TABLE SIZE: 769 POINTS
Info: REMOVING COM VELOCITY 0.0127221 -0.0315137 -0.0236259
Info: NONBONDED TABLE R-SQUARED SPACING: 0.0625
Info: NONBONDED TABLE SIZE: 769 POINTS
Info: READING EXTRA BONDS FILE 11/namdcph.sw.extrabonds
Info: LONG-RANGE LJ: APPLYING ANALYTICAL CORRECTIONS TO ENERGY AND PRESSURE
Info: LONG-RANGE LJ: AVERAGE A AND B COEFFICIENTS 70966.8 AND 74.6091
Info: STRUCTURE SUMMARY:
Info: 25811 ATOMS
Info: 17464 BONDS
Info: 9855 ANGLES
Info: 2262 DIHEDRALS
Info: 181 IMPROPERS
Info: 54 CROSSTERMS
Info: 0 EXCLUSIONS
Info: 25340 RIGID BONDS
Info: 52093 DEGREES OF FREEDOM
Info: 8771 HYDROGEN GROUPS
Info: 4 ATOMS IN LARGEST HYDROGEN GROUP
Info: 8771 MIGRATION GROUPS
Info: 4 ATOMS IN LARGEST MIGRATION GROUP
Info: TOTAL MASS = 156966 amu
Info: TOTAL CHARGE = -4 e
Info: MASS DENSITY = 1.02222 g/cm^3
Info: ATOM DENSITY = 0.101224 atoms/A^3
Info: ADDED 29579 IMPLICIT EXCLUSIONS
Info: NONBONDED TABLE R-SQUARED SPACING: 0.0625
Info: NONBONDED TABLE SIZE: 769 POINTS
Info: REMOVING COM VELOCITY 0.0122185 -0.032531 -0.0227929
Info: NONBONDED TABLE R-SQUARED SPACING: 0.0625
Info: NONBONDED TABLE SIZE: 769 POINTS
Info: READING EXTRA BONDS FILE 11/namdcph.sw.extrabonds
Info: READ 7 EXTRA BONDS
Info: To read alchdata from file: coordinate pdb file (default)
Info: To read alchflag data from column: 5
Info: LONG-RANGE LJ: APPLYING ANALYTICAL CORRECTIONS TO ENERGY AND PRESSURE
Info: LONG-RANGE LJ: AVERAGE A0 AND B0 COEFFICIENTS 70966.8 AND 74.6091
Info: LONG-RANGE LJ: AVERAGE A1 AND B1 COEFFICIENTS 70961.3 AND 74.6036
Info: STRUCTURE SUMMARY:
Info: 25818 ATOMS
Info: 17478 BONDS
Info: 9870 ANGLES
Info: 2283 DIHEDRALS
Info: 181 IMPROPERS
Info: 54 CROSSTERMS
Info: 0 EXCLUSIONS
Info: 25345 RIGID BONDS
Info: ALCH: 7 ATOMS TO DISAPPEAR IN FINAL STATE
Info: ALCH: 7 ATOMS TO APPEAR IN FINAL STATE
Info: ALCH: 1 ANGLES LINKING INITIAL AND FINAL ATOMS DELETED
Info: ALCH: 6 DIHEDRALS LINKING INITIAL AND FINAL ATOMS DELETED
Info: 52109 DEGREES OF FREEDOM
Info: 8773 HYDROGEN GROUPS
Info: 4 ATOMS IN LARGEST HYDROGEN GROUP
Info: 8773 MIGRATION GROUPS
Info: 4 ATOMS IN LARGEST MIGRATION GROUP
Info: TOTAL MASS = 156997 amu
Info: TOTAL CHARGE = -3 e
Info: MASS DENSITY = 1.02242 g/cm^3
Info: ATOM DENSITY = 0.101252 atoms/A^3
Info: ADDED 29622 IMPLICIT EXCLUSIONS
Info: NONBONDED TABLE R-SQUARED SPACING: 0.0625
Info: NONBONDED TABLE SIZE: 769 POINTS
Info: REMOVING COM VELOCITY 0.0349485 0.0249339 0.0425605
Info: NONBONDED TABLE R-SQUARED SPACING: 0.0625
Info: NONBONDED TABLE SIZE: 769 POINTS
Info: READING EXTRA BONDS FILE 11/namdcph.sw.extrabonds
Info: LONG-RANGE LJ: APPLYING ANALYTICAL CORRECTIONS TO ENERGY AND PRESSURE
Info: LONG-RANGE LJ: AVERAGE A AND B COEFFICIENTS 70966.8 AND 74.6091
Info: STRUCTURE SUMMARY:
Info: 25811 ATOMS
Info: 17464 BONDS
Info: 9855 ANGLES
Info: 2262 DIHEDRALS
Info: 181 IMPROPERS
Info: 54 CROSSTERMS
Info: 0 EXCLUSIONS
Info: 25340 RIGID BONDS
Info: 52093 DEGREES OF FREEDOM
Info: 8771 HYDROGEN GROUPS
Info: 4 ATOMS IN LARGEST HYDROGEN GROUP
Info: 8771 MIGRATION GROUPS
Info: 4 ATOMS IN LARGEST MIGRATION GROUP
Info: TOTAL MASS = 156966 amu
Info: TOTAL CHARGE = -4 e
Info: MASS DENSITY = 1.02222 g/cm^3
Info: ATOM DENSITY = 0.101224 atoms/A^3
Info: ADDED 29579 IMPLICIT EXCLUSIONS
Info: NONBONDED TABLE R-SQUARED SPACING: 0.0625
Info: NONBONDED TABLE SIZE: 769 POINTS
Info: REMOVING COM VELOCITY 0.0351155 0.0239805 0.0426254
Info: NONBONDED TABLE R-SQUARED SPACING: 0.0625
Info: NONBONDED TABLE SIZE: 769 POINTS
Info: READING EXTRA BONDS FILE 11/namdcph.sw.extrabonds
Info: READ 7 EXTRA BONDS
Info: To read alchdata from file: coordinate pdb file (default)
Info: To read alchflag data from column: 5
Info: LONG-RANGE LJ: APPLYING ANALYTICAL CORRECTIONS TO ENERGY AND PRESSURE
Info: LONG-RANGE LJ: AVERAGE A0 AND B0 COEFFICIENTS 70966.8 AND 74.6091
Info: LONG-RANGE LJ: AVERAGE A1 AND B1 COEFFICIENTS 70961.3 AND 74.6036
Info: STRUCTURE SUMMARY:
Info: 25818 ATOMS
Info: 17478 BONDS
Info: 9870 ANGLES
Info: 2283 DIHEDRALS
Info: 181 IMPROPERS
Info: 54 CROSSTERMS
Info: 0 EXCLUSIONS
Info: 25345 RIGID BONDS
Info: ALCH: 7 ATOMS TO DISAPPEAR IN FINAL STATE
Info: ALCH: 7 ATOMS TO APPEAR IN FINAL STATE
Info: ALCH: 1 ANGLES LINKING INITIAL AND FINAL ATOMS DELETED
Info: ALCH: 6 DIHEDRALS LINKING INITIAL AND FINAL ATOMS DELETED
Info: 52109 DEGREES OF FREEDOM
Info: 8773 HYDROGEN GROUPS
Info: 4 ATOMS IN LARGEST HYDROGEN GROUP
Info: 8773 MIGRATION GROUPS
Info: 4 ATOMS IN LARGEST MIGRATION GROUP
Info: TOTAL MASS = 156997 amu
Info: TOTAL CHARGE = -3 e
Info: MASS DENSITY = 1.02242 g/cm^3
Info: ATOM DENSITY = 0.101252 atoms/A^3
Info: ADDED 29622 IMPLICIT EXCLUSIONS
Info: NONBONDED TABLE R-SQUARED SPACING: 0.0625
Info: NONBONDED TABLE SIZE: 769 POINTS
Info: REMOVING COM VELOCITY 0.0511437 -0.0127632 0.0185127
Info: NONBONDED TABLE R-SQUARED SPACING: 0.0625
Info: NONBONDED TABLE SIZE: 769 POINTS
Info: READING EXTRA BONDS FILE 11/namdcph.sw.extrabonds
Info: LONG-RANGE LJ: APPLYING ANALYTICAL CORRECTIONS TO ENERGY AND PRESSURE
Info: LONG-RANGE LJ: AVERAGE A AND B COEFFICIENTS 70966.8 AND 74.6091
Info: STRUCTURE SUMMARY:
Info: 25811 ATOMS
Info: 17464 BONDS
Info: 9855 ANGLES
Info: 2262 DIHEDRALS
Info: 181 IMPROPERS
Info: 54 CROSSTERMS
Info: 0 EXCLUSIONS
Info: 25340 RIGID BONDS
Info: 52093 DEGREES OF FREEDOM
Info: 8771 HYDROGEN GROUPS
Info: 4 ATOMS IN LARGEST HYDROGEN GROUP
Info: 8771 MIGRATION GROUPS
Info: 4 ATOMS IN LARGEST MIGRATION GROUP
Info: TOTAL MASS = 156966 amu
Info: TOTAL CHARGE = -4 e
Info: MASS DENSITY = 1.02222 g/cm^3
Info: ATOM DENSITY = 0.101224 atoms/A^3
Info: ADDED 29579 IMPLICIT EXCLUSIONS
Info: NONBONDED TABLE R-SQUARED SPACING: 0.0625
Info: NONBONDED TABLE SIZE: 769 POINTS
Info: REMOVING COM VELOCITY 0.0509339 -0.0130032 0.0179674
Info: NONBONDED TABLE R-SQUARED SPACING: 0.0625
Info: NONBONDED TABLE SIZE: 769 POINTS
Info: READING EXTRA BONDS FILE 11/namdcph.sw.extrabonds
Info: READ 7 EXTRA BONDS
Info: To read alchdata from file: coordinate pdb file (default)
Info: To read alchflag data from column: 5
Info: LONG-RANGE LJ: APPLYING ANALYTICAL CORRECTIONS TO ENERGY AND PRESSURE
Info: LONG-RANGE LJ: AVERAGE A0 AND B0 COEFFICIENTS 70966.8 AND 74.6091
Info: LONG-RANGE LJ: AVERAGE A1 AND B1 COEFFICIENTS 70961.3 AND 74.6036
Info: STRUCTURE SUMMARY:
Info: 25818 ATOMS
Info: 17478 BONDS
Info: 9870 ANGLES
Info: 2283 DIHEDRALS
Info: 181 IMPROPERS
Info: 54 CROSSTERMS
Info: 0 EXCLUSIONS
Info: 25345 RIGID BONDS
Info: ALCH: 7 ATOMS TO DISAPPEAR IN FINAL STATE
Info: ALCH: 7 ATOMS TO APPEAR IN FINAL STATE
Info: ALCH: 1 ANGLES LINKING INITIAL AND FINAL ATOMS DELETED
Info: ALCH: 6 DIHEDRALS LINKING INITIAL AND FINAL ATOMS DELETED
Info: 52109 DEGREES OF FREEDOM
Info: 8773 HYDROGEN GROUPS
Info: 4 ATOMS IN LARGEST HYDROGEN GROUP
Info: 8773 MIGRATION GROUPS
Info: 4 ATOMS IN LARGEST MIGRATION GROUP
Info: TOTAL MASS = 156997 amu
Info: TOTAL CHARGE = -3 e
Info: MASS DENSITY = 1.02242 g/cm^3
Info: ATOM DENSITY = 0.101252 atoms/A^3
Info: ADDED 29622 IMPLICIT EXCLUSIONS
Info: NONBONDED TABLE R-SQUARED SPACING: 0.0625
Info: NONBONDED TABLE SIZE: 769 POINTS
Info: REMOVING COM VELOCITY 0.0103079 0.000914208 -0.0426112
Info: NONBONDED TABLE R-SQUARED SPACING: 0.0625
Info: NONBONDED TABLE SIZE: 769 POINTS
Info: READING EXTRA BONDS FILE 11/namdcph.sw.extrabonds
Info: LONG-RANGE LJ: APPLYING ANALYTICAL CORRECTIONS TO ENERGY AND PRESSURE
Info: LONG-RANGE LJ: AVERAGE A AND B COEFFICIENTS 70966.8 AND 74.6091
Info: STRUCTURE SUMMARY:
Info: 25811 ATOMS
Info: 17464 BONDS
Info: 9855 ANGLES
Info: 2262 DIHEDRALS
Info: 181 IMPROPERS
Info: 54 CROSSTERMS
Info: 0 EXCLUSIONS
Info: 25340 RIGID BONDS
Info: 52093 DEGREES OF FREEDOM
Info: 8771 HYDROGEN GROUPS
Info: 4 ATOMS IN LARGEST HYDROGEN GROUP
Info: 8771 MIGRATION GROUPS
Info: 4 ATOMS IN LARGEST MIGRATION GROUP
Info: TOTAL MASS = 156966 amu
Info: TOTAL CHARGE = -4 e
Info: MASS DENSITY = 1.02222 g/cm^3
Info: ATOM DENSITY = 0.101224 atoms/A^3
Info: ADDED 29579 IMPLICIT EXCLUSIONS
Info: NONBONDED TABLE R-SQUARED SPACING: 0.0625
Info: NONBONDED TABLE SIZE: 769 POINTS
Info: REMOVING COM VELOCITY 0.0105413 0.00158679 -0.0425561
Info: NONBONDED TABLE R-SQUARED SPACING: 0.0625
Info: NONBONDED TABLE SIZE: 769 POINTS
Info: READING EXTRA BONDS FILE 11/namdcph.sw.extrabonds
Info: READ 7 EXTRA BONDS
Info: To read alchdata from file: coordinate pdb file (default)
Info: To read alchflag data from column: 5
Info: LONG-RANGE LJ: APPLYING ANALYTICAL CORRECTIONS TO ENERGY AND PRESSURE
Info: LONG-RANGE LJ: AVERAGE A0 AND B0 COEFFICIENTS 70966.8 AND 74.6091
Info: LONG-RANGE LJ: AVERAGE A1 AND B1 COEFFICIENTS 70961.3 AND 74.6036
Info: STRUCTURE SUMMARY:
Info: 25818 ATOMS
Info: 17478 BONDS
Info: 9870 ANGLES
Info: 2283 DIHEDRALS
Info: 181 IMPROPERS
Info: 54 CROSSTERMS
Info: 0 EXCLUSIONS
Info: 25345 RIGID BONDS
Info: ALCH: 7 ATOMS TO DISAPPEAR IN FINAL STATE
Info: ALCH: 7 ATOMS TO APPEAR IN FINAL STATE
Info: ALCH: 1 ANGLES LINKING INITIAL AND FINAL ATOMS DELETED
Info: ALCH: 6 DIHEDRALS LINKING INITIAL AND FINAL ATOMS DELETED
Info: 52109 DEGREES OF FREEDOM
Info: 8773 HYDROGEN GROUPS
Info: 4 ATOMS IN LARGEST HYDROGEN GROUP
Info: 8773 MIGRATION GROUPS
Info: 4 ATOMS IN LARGEST MIGRATION GROUP
Info: TOTAL MASS = 156997 amu
Info: TOTAL CHARGE = -3 e
Info: MASS DENSITY = 1.02242 g/cm^3
Info: ATOM DENSITY = 0.101252 atoms/A^3
Info: ADDED 29622 IMPLICIT EXCLUSIONS
Info: NONBONDED TABLE R-SQUARED SPACING: 0.0625
Info: NONBONDED TABLE SIZE: 769 POINTS
Info: REMOVING COM VELOCITY -0.00616842 0.0223413 0.0302718
Info: NONBONDED TABLE R-SQUARED SPACING: 0.0625
Info: NONBONDED TABLE SIZE: 769 POINTS
Info: READING EXTRA BONDS FILE 11/namdcph.sw.extrabonds
Info: LONG-RANGE LJ: APPLYING ANALYTICAL CORRECTIONS TO ENERGY AND PRESSURE
Info: LONG-RANGE LJ: AVERAGE A AND B COEFFICIENTS 70966.8 AND 74.6091
Info: STRUCTURE SUMMARY:
Info: 25811 ATOMS
Info: 17464 BONDS
Info: 9855 ANGLES
Info: 2262 DIHEDRALS
Info: 181 IMPROPERS
Info: 54 CROSSTERMS
Info: 0 EXCLUSIONS
Info: 25340 RIGID BONDS
Info: 52093 DEGREES OF FREEDOM
Info: 8771 HYDROGEN GROUPS
Info: 4 ATOMS IN LARGEST HYDROGEN GROUP
Info: 8771 MIGRATION GROUPS
Info: 4 ATOMS IN LARGEST MIGRATION GROUP
Info: TOTAL MASS = 156966 amu
Info: TOTAL CHARGE = -4 e
Info: MASS DENSITY = 1.02222 g/cm^3
Info: ATOM DENSITY = 0.101224 atoms/A^3
Info: ADDED 29579 IMPLICIT EXCLUSIONS
Info: NONBONDED TABLE R-SQUARED SPACING: 0.0625
Info: NONBONDED TABLE SIZE: 769 POINTS
Info: REMOVING COM VELOCITY -0.00601787 0.0234612 0.02917
Info: NONBONDED TABLE R-SQUARED SPACING: 0.0625
Info: NONBONDED TABLE SIZE: 769 POINTS
Info: READING EXTRA BONDS FILE 11/namdcph.sw.extrabonds
Info: READ 7 EXTRA BONDS
Info: To read alchdata from file: coordinate pdb file (default)
Info: To read alchflag data from column: 5
Info: LONG-RANGE LJ: APPLYING ANALYTICAL CORRECTIONS TO ENERGY AND PRESSURE
Info: LONG-RANGE LJ: AVERAGE A0 AND B0 COEFFICIENTS 70966.8 AND 74.6091
Info: LONG-RANGE LJ: AVERAGE A1 AND B1 COEFFICIENTS 70961.3 AND 74.6036
Info: STRUCTURE SUMMARY:
Info: 25818 ATOMS
Info: 17478 BONDS
Info: 9870 ANGLES
Info: 2283 DIHEDRALS
Info: 181 IMPROPERS
Info: 54 CROSSTERMS
Info: 0 EXCLUSIONS
Info: 25345 RIGID BONDS
Info: ALCH: 7 ATOMS TO DISAPPEAR IN FINAL STATE
Info: ALCH: 7 ATOMS TO APPEAR IN FINAL STATE
Info: ALCH: 1 ANGLES LINKING INITIAL AND FINAL ATOMS DELETED
Info: ALCH: 6 DIHEDRALS LINKING INITIAL AND FINAL ATOMS DELETED
Info: 52109 DEGREES OF FREEDOM
Info: 8773 HYDROGEN GROUPS
Info: 4 ATOMS IN LARGEST HYDROGEN GROUP
Info: 8773 MIGRATION GROUPS
Info: 4 ATOMS IN LARGEST MIGRATION GROUP
Info: TOTAL MASS = 156997 amu
Info: TOTAL CHARGE = -3 e
Info: MASS DENSITY = 1.02242 g/cm^3
Info: ATOM DENSITY = 0.101252 atoms/A^3
Info: ADDED 29622 IMPLICIT EXCLUSIONS
Info: NONBONDED TABLE R-SQUARED SPACING: 0.0625
Info: NONBONDED TABLE SIZE: 769 POINTS
Info: REMOVING COM VELOCITY 0.0429074 -0.0054787 -0.0358703
Info: NONBONDED TABLE R-SQUARED SPACING: 0.0625
Info: NONBONDED TABLE SIZE: 769 POINTS
Info: READING EXTRA BONDS FILE 11/namdcph.sw.extrabonds
Info: LONG-RANGE LJ: APPLYING ANALYTICAL CORRECTIONS TO ENERGY AND PRESSURE
Info: LONG-RANGE LJ: AVERAGE A AND B COEFFICIENTS 70966.8 AND 74.6091
Info: STRUCTURE SUMMARY:
Info: 25811 ATOMS
Info: 17464 BONDS
Info: 9855 ANGLES
Info: 2262 DIHEDRALS
Info: 181 IMPROPERS
Info: 54 CROSSTERMS
Info: 0 EXCLUSIONS
Info: 25340 RIGID BONDS
Info: 52093 DEGREES OF FREEDOM
Info: 8771 HYDROGEN GROUPS
Info: 4 ATOMS IN LARGEST HYDROGEN GROUP
Info: 8771 MIGRATION GROUPS
Info: 4 ATOMS IN LARGEST MIGRATION GROUP
Info: TOTAL MASS = 156966 amu
Info: TOTAL CHARGE = -4 e
Info: MASS DENSITY = 1.02222 g/cm^3
Info: ATOM DENSITY = 0.101224 atoms/A^3
Info: ADDED 29579 IMPLICIT EXCLUSIONS
Info: NONBONDED TABLE R-SQUARED SPACING: 0.0625
Info: NONBONDED TABLE SIZE: 769 POINTS
Info: REMOVING COM VELOCITY 0.0426201 -0.00375217 -0.0361783
