Info: SIMULATION PARAMETERS:
Info: TIMESTEP               2
Info: NUMBER OF STEPS        0
Info: STEPS PER CYCLE        20
Info: PERIODIC CELL BASIS 1  44.2525 0 0
Info: PERIODIC CELL BASIS 2  0 55.5696 0
Info: PERIODIC CELL BASIS 3  0 0 104.296
Info: PERIODIC CELL CENTER   0.203575 0.535242 2.84572
Info: WRAPPING WATERS AROUND PERIODIC BOUNDARIES ON OUTPUT.
Info: WRAPPING ALL CLUSTERS AROUND PERIODIC BOUNDARIES ON OUTPUT.
Info: FIRST LDB TIMESTEP     100
Info: LAST LDB TIMESTEP     -1
Info: HOM BACKGROUND SCALING 1
Info: PME BACKGROUND SCALING 1
Info: MIN ATOMS PER PATCH    40
Info: INITIAL TEMPERATURE    298
Info: CENTER OF MASS MOVING INITIALLY? NO
Info: DIELECTRIC             1
Info: EXCLUDE                SCALED ONE-FOUR
Info: 1-4 ELECTROSTATICS SCALED BY 1
Info: MODIFIED 1-4 VDW PARAMETERS WILL BE USED
Info: DCD FILENAME           3/Pre3_0.dcd
Info: DCD FREQUENCY          1000
Info: DCD FIRST STEP         1000
Info: DCD FILE WILL CONTAIN UNIT CELL DATA
Info: NO EXTENDED SYSTEM TRAJECTORY OUTPUT
Info: NO VELOCITY DCD OUTPUT
Info: NO FORCE DCD OUTPUT
Info: OUTPUT FILENAME        3/Pre3_0
Info: BINARY OUTPUT FILES WILL BE USED
Info: NO RESTART FILE
Info: SWITCHING ACTIVE
Info: VDW FORCE SWITCHING ACTIVE
Info: SWITCHING ON           10
Info: SWITCHING OFF          12
Info: PAIRLIST DISTANCE      14
Info: PAIRLIST SHRINK RATE   0.01
Info: PAIRLIST GROW RATE     0.01
Info: PAIRLIST TRIGGER       0.3
Info: PAIRLISTS PER CYCLE    2
Info: PAIRLISTS ENABLED
Info: MARGIN                 2
Info: HYDROGEN GROUP CUTOFF  2.5
Info: PATCH DIMENSION        18.5
Info: ENERGY OUTPUT STEPS    1000
Info: CROSSTERM ENERGY INCLUDED IN DIHEDRAL
Info: TIMING OUTPUT STEPS    10000
Info: THERMODYNAMIC INTEGRATION (TI) ON
Info: TI LAMBDA VALUE     0
Info: TI INTRA-ALCHEMICAL NON-BONDED INTERACTIONS WILL BE DECOUPLED
Info: TI INTRA-ALCHEMICAL BONDED INTERACTIONS WILL BE DECOUPLED
Info: TI VDW SHIFTING COEFFICIENT 0
Info: TI ELEC. ACTIVE FOR ANNIHILATED PARTICLES BETWEEN LAMBDA = 0 AND LAMBDA = 1
Info: TI ELEC. ACTIVE FOR EXNIHILATED PARTICLES BETWEEN LAMBDA = 0 AND LAMBDA = 1
Info: TI VDW ACTIVE FOR ANNIHILATED PARTICLES BETWEEN LAMBDA = 0 AND LAMBDA = 1
Info: TI VDW ACTIVE FOR EXNIHILATED PARTICLES BETWEEN LAMBDA = 0 AND LAMBDA = 1
Info: TI BOND ACTIVE FOR ANNIHILATED PARTICLES BETWEEN LAMBDA = 0 AND LAMBDA = 1
Info: TI BOND ACTIVE FOR EXNIHILATED PARTICLES BETWEEN LAMBDA = 0 AND LAMBDA = 1
Info: LANGEVIN DYNAMICS ACTIVE
Info: LANGEVIN TEMPERATURE   298
Info: LANGEVIN USING BBK INTEGRATOR
Info: LANGEVIN DAMPING COEFFICIENT IS 1 INVERSE PS
Info: LANGEVIN DYNAMICS NOT APPLIED TO HYDROGENS
Info: PARTICLE MESH EWALD (PME) ACTIVE
Info: PME TOLERANCE               1e-06
Info: PME EWALD COEFFICIENT       0.257952
Info: PME INTERPOLATION ORDER     4
Info: PME GRID DIMENSIONS         48 56 108
Info: PME MAXIMUM GRID SPACING    1
Info: FULL ELECTROSTATIC EVALUATION FREQUENCY      2
Info: USING VERLET I (r-RESPA) MTS SCHEME.
Info: C1 SPLITTING OF LONG RANGE ELECTROSTATICS
Info: PLACING ATOMS IN PATCHES BY HYDROGEN GROUPS
Info: RIGID BONDS TO HYDROGEN : ALL
Info:         ERROR TOLERANCE : 1e-08
Info:          MAX ITERATIONS : 100
Info: RIGID WATER USING SETTLE ALGORITHM
Info: RANDOM NUMBER SEED     1689347970
Info: USE HYDROGEN BONDS?    NO
Info: COORDINATE PDB         ../topology/preD936H.pdb
Info: STRUCTURE FILE         ../topology/preD936H.psf
Info: PARAMETER file: CHARMM format!
Info: PARAMETERS             ../../toppar/par_all36_carb.prm
Info: PARAMETERS             ../../toppar/par_all36_cgenff.prm
Info: PARAMETERS             ../../toppar/par_all36_lipid.prm
Info: PARAMETERS             ../../toppar/par_all36_na.prm
Info: PARAMETERS             ../../toppar/par_all36_prot.prm
Info: PARAMETERS             ../../toppar/par_all36_solvent.prm
Info: PARAMETERS             ../../toppar/par_cph36_prot.prm
Info: PARAMETERS             ../../toppar/toppar_all36_carb_glycopeptide.str
Info: PARAMETERS             ../../toppar/toppar_water_ions_namd.str
Info: USING ARITHMETIC MEAN TO COMBINE L-J SIGMA PARAMETERS
Info: SKIPPING rtf SECTION IN STREAM FILE
Info: SKIPPING rtf SECTION IN STREAM FILE
Info: SUMMARY OF PARAMETERS:
Info: 925 BONDS
Info: 2696 ANGLES
Info: 6608 DIHEDRAL
Info: 195 IMPROPER
Info: 6 CROSSTERM
Info: 366 VDW
Info: 6 VDW_PAIRS
Info: 0 NBTHOLE_PAIRS
Info: READING EXTRA BONDS FILE 3/namdcph.sw.extrabonds
Info: To read alchdata from file: coordinate pdb file (default)
Info: To read alchflag data from column: 5
Info: LONG-RANGE LJ: APPLYING ANALYTICAL CORRECTIONS TO ENERGY AND PRESSURE
Info: LONG-RANGE LJ: AVERAGE A0 AND B0 COEFFICIENTS 70982 AND 74.603
Info: LONG-RANGE LJ: AVERAGE A1 AND B1 COEFFICIENTS 70982 AND 74.603
Info: STRUCTURE SUMMARY:
Info: 25959 ATOMS
Info: 17562 BONDS
Info: 9911 ANGLES
Info: 2266 DIHEDRALS
Info: 179 IMPROPERS
Info: 54 CROSSTERMS
Info: 0 EXCLUSIONS
Info: 25484 RIGID BONDS
Info: ALCH: 0 ATOMS TO DISAPPEAR IN FINAL STATE
Info: ALCH: 0 ATOMS TO APPEAR IN FINAL STATE
Info: 52393 DEGREES OF FREEDOM
Info: 8824 HYDROGEN GROUPS
Info: 4 ATOMS IN LARGEST HYDROGEN GROUP
Info: 8824 MIGRATION GROUPS
Info: 4 ATOMS IN LARGEST MIGRATION GROUP
Info: TOTAL MASS = 157926 amu
Info: TOTAL CHARGE = 4.24683e-07 e
Info: MASS DENSITY = 1.02252 g/cm^3
Info: ATOM DENSITY = 0.101215 atoms/A^3
Info: ADDED 29728 IMPLICIT EXCLUSIONS
Info: NONBONDED TABLE R-SQUARED SPACING: 0.0625
Info: NONBONDED TABLE SIZE: 769 POINTS
Info: REMOVING COM VELOCITY -0.00339807 0.0140086 0.0417802
TCL: Setting parameter alchLambdaFreq to 1
Info: NONBONDED TABLE R-SQUARED SPACING: 0.0625
Info: NONBONDED TABLE SIZE: 769 POINTS
TCL: Setting parameter alch to off
Info: NONBONDED TABLE R-SQUARED SPACING: 0.0625
Info: NONBONDED TABLE SIZE: 769 POINTS
TCL: namdcph) initializing constant pH PSF...
TCL: aliasing PP1:936:HSD to HIS
TCL: WARNING! Building new atom PP1:918:HE1 with unknown mass.
TCL:          This may cause issues, for example, with mass repartitioning.
TCL: WARNING! Building new atom PP1:918:HE2 with unknown mass.
TCL:          This may cause issues, for example, with mass repartitioning.
TCL: WARNING! Building new atom PP1:936:HE2 with unknown mass.
TCL:          This may cause issues, for example, with mass repartitioning.
TCL: WARNING! Building new atom PP1:950:HD1 with unknown mass.
TCL:          This may cause issues, for example, with mass repartitioning.
TCL: WARNING! Building new atom PP1:950:HD2 with unknown mass.
TCL:          This may cause issues, for example, with mass repartitioning.
TCL: cphpsfgen) creating new alchemical side chain for PP1:918:GLU
TCL: cphpsfgen) merging alchemical sidechains for PP1:918:GLU
TCL: cphpsfgen) creating new alchemical side chain for PP1:921:LYS
TCL: cphpsfgen) merging alchemical sidechains for PP1:921:LYS
TCL: cphpsfgen) creating new alchemical side chain for PP1:933:LYS
TCL: cphpsfgen) merging alchemical sidechains for PP1:933:LYS
TCL: cphpsfgen) creating new alchemical side chain for PP1:936:HIS
TCL: cphpsfgen) merging alchemical sidechains for PP1:936:HIS
TCL: cphpsfgen) creating new alchemical side chain for PP1:947:LYS
TCL: cphpsfgen) merging alchemical sidechains for PP1:947:LYS
TCL: cphpsfgen) creating new alchemical side chain for PP1:950:ASP
TCL: cphpsfgen) merging alchemical sidechains for PP1:950:ASP
TCL: cphpsfgen) creating new alchemical side chain for PP1:964:LYS
TCL: cphpsfgen) merging alchemical sidechains for PP1:964:LYS
TCL: namdcph) ***************************************
TCL: namdcph) CONSTANT pH MD ACTIVE
TCL: namdcph) SYSTEM pH 3
TCL: namdcph) CONSTANT pH CONFIGURATION FILE(S)
TCL: namdcph) ../../toppar/conf_cph36_prot.json
TCL: namdcph) NONEQUILIBRIUM SWITCH PARAMETERS:
TCL: namdcph) ALCHEMICAL FORCE CONSTANT 100.0 kcal/mol-A^2
TCL: namdcph) neMD/MC CRITERION TEMPERATURE 298.0
TCL: namdcph) TEMPORARY FILE INFORMATION:
TCL: namdcph) cpH TOPOLOGY FILE BASENAME 3/namdcph.md
TCL: namdcph) neMD/MC TRAJECTORY BASENAME 3/namdcph.sw
TCL: namdcph) ***************************************
TCL: namdcph) ***************************************
TCL: namdcph) TITRATABLE RESIDUE DEFINITIONS:
TCL: namdcph) HIS ASP GLU CYS LYS
TCL: namdcph) TITRATABLE SYSTEM SUMMARY:
TCL: namdcph) 7 RESIDUE(S)
TCL: namdcph) 18 PROTONATION SITE(S)
TCL: namdcph) ***************************************
TCL: namdcph) segid:resid:resname : state : pKai
TCL: namdcph) PP1:918:GLU         :     1 : 5.90
TCL: namdcph) PP1:921:LYS         :     P : 9.77
TCL: namdcph) PP1:933:LYS         :     P : 9.53
TCL: namdcph) PP1:936:HIS         :     P : 6.5 7.0
TCL: namdcph) PP1:947:LYS         :     P : 9.82
TCL: namdcph) PP1:950:ASP         :     2 : 5.50
TCL: namdcph) PP1:964:LYS         :     P : 9.68
TCL: namdcph) ***************************************
TCL: namdcph) *************************************************
TCL: namdcph) CONSTANT pH neMD/MC MOVES:
TCL: namdcph) MAX. ATTEMPTS PER CYCLE: 1
TCL: namdcph) ONE RESIDUE MOVES
TCL: namdcph) move label     : numsteps   weight
TCL: namdcph) PP1:918:GLU    :    75000     1.00
TCL: namdcph) PP1:921:LYS    :    75000     1.00
TCL: namdcph) PP1:933:LYS    :    75000     1.00
TCL: namdcph) PP1:936:HIS    :    75000     1.00
TCL: namdcph) PP1:947:LYS    :    75000     1.00
TCL: namdcph) PP1:950:ASP    :    75000     1.00
TCL: namdcph) PP1:964:LYS    :    75000     1.00
TCL: namdcph) *************************************************
TCL: namdcph) clearing extraBondsFile 3/namdcph.sw.extrabonds
TCL: Reloading molecular structure from file 3/namdcph.md.psf and pdb file 3/namdcph.md.pdb
Info: READING EXTRA BONDS FILE 3/namdcph.sw.extrabonds
Info: LONG-RANGE LJ: APPLYING ANALYTICAL CORRECTIONS TO ENERGY AND PRESSURE
Info: LONG-RANGE LJ: AVERAGE A AND B COEFFICIENTS 70974 AND 74.5925
Info: STRUCTURE SUMMARY:
Info: 25964 ATOMS
Info: 17567 BONDS
Info: 9917 ANGLES
Info: 2278 DIHEDRALS
Info: 177 IMPROPERS
Info: 54 CROSSTERMS
Info: 0 EXCLUSIONS
Info: 25489 RIGID BONDS
Info: 52403 DEGREES OF FREEDOM
Info: 8824 HYDROGEN GROUPS
Info: 4 ATOMS IN LARGEST HYDROGEN GROUP
Info: 8824 MIGRATION GROUPS
Info: 4 ATOMS IN LARGEST MIGRATION GROUP
Info: TOTAL MASS = 157931 amu
Info: TOTAL CHARGE = 3 e
Info: MASS DENSITY = 1.02255 g/cm^3
Info: ATOM DENSITY = 0.101235 atoms/A^3
Info: ADDED 29751 IMPLICIT EXCLUSIONS
Info: NONBONDED TABLE R-SQUARED SPACING: 0.0625
Info: NONBONDED TABLE SIZE: 769 POINTS
TCL: Reinitializing atom data from files with basename 3/namdcph.md
Info: REMOVING COM VELOCITY -0.000313347 -0.000714449 0.00115355
TCL: Minimizing for 300 steps
ETITLE: TS BOND ANGLE DIHED IMPRP ELECT VDW BOUNDARY MISC KINETIC TOTAL TEMP POTENTIAL TOTAL3 TEMPAVG PRESSURE GPRESSURE VOLUME PRESSAVG GPRESSAVG
ENERGY: 0 62.7351 106.0175 443.3923 0.5578 -82660.9854 99999999999.9999 0.0000 0.0000 0.0000 99999999999.9999 0.0000 99999999999.9999 99999999999.9999 0.0000 99999999999.9999 99999999999.9999 256473.6171 99999999999.9999 99999999999.9999
ENERGY: 60 81.2305 153.1006 434.5814 8.3587 -94478.9846 11837.5602 0.0000 0.0000 0.0000 -81964.1533 0.0000 -81964.1533 -81964.1533 0.0000 24054.9675 5074.1907 256473.6171 24054.9675 5074.1907
ENERGY: 120 82.5214 220.3506 431.0374 11.5848 -99253.6712 9733.5905 0.0000 0.0000 0.0000 -88774.5865 0.0000 -88774.5865 -88774.5865 0.0000 20875.7003 948.7941 256473.6171 20875.7003 948.7941
ENERGY: 180 146.7990 219.9932 435.7085 22.1778 -102226.6356 8982.6219 0.0000 0.0000 0.0000 -92419.3352 0.0000 -92419.3352 -92419.3352 0.0000 19851.2234 -729.2017 256473.6171 19851.2234 -729.2017
ENERGY: 240 54.6059 181.7371 427.7845 8.7018 -104340.9971 8754.3538 0.0000 0.0000 0.0000 -94913.8140 0.0000 -94913.8140 -94913.8140 0.0000 19422.7180 19345.7457 256473.6171 19422.7180 19345.7457
ENERGY: 300 56.1696 190.5132 424.2268 9.6927 -106027.9043 8837.6683 0.0000 0.0000 0.0000 -96509.6336 0.0000 -96509.6336 -96509.6336 0.0000 19402.2804 19332.7506 256473.6171 19402.2804 19332.7506
TCL: Setting parameter firstTimeStep to 0
TCL: Running for 500 steps
ETITLE: TS BOND ANGLE DIHED IMPRP ELECT VDW BOUNDARY MISC KINETIC TOTAL TEMP POTENTIAL TOTAL3 TEMPAVG PRESSURE GPRESSURE VOLUME PRESSAVG GPRESSAVG
ENERGY: 0 56.1696 190.5132 424.2268 9.6927 -106027.9044 8837.6683 0.0000 0.0000 15417.8462 -81091.7875 296.1133 -96509.6337 -81106.2332 296.1133 -2822.2890 -2750.2028 256473.6171 -2822.2890 -2750.2028
TCL: namdcph) Proposal rejected.
TCL: Running for 500 steps without repeating first step
ETITLE: TS BOND ANGLE DIHED IMPRP ELECT VDW BOUNDARY MISC KINETIC TOTAL TEMP POTENTIAL TOTAL3 TEMPAVG PRESSURE GPRESSURE VOLUME PRESSAVG GPRESSAVG
ENERGY: 1000 142.5913 440.7475 486.1622 29.2937 -101321.9013 9292.5445 0.0000 0.0000 13614.9890 -77315.5731 261.4879 -90930.5621 -77282.7234 243.4661 -539.4833 -504.1277 256473.6171 -450.5186 -450.4950
TCL: namdcph) Proposal rejected.
TCL: Running for 500 steps without repeating first step
TCL: namdcph) Proposal rejected.
TCL: Running for 500 steps without repeating first step
ETITLE: TS BOND ANGLE DIHED IMPRP ELECT VDW BOUNDARY MISC KINETIC TOTAL TEMP POTENTIAL TOTAL3 TEMPAVG PRESSURE GPRESSURE VOLUME PRESSAVG GPRESSAVG
ENERGY: 2000 155.7565 487.8035 476.3234 40.7540 -99720.0429 9073.8926 0.0000 0.0000 14559.1759 -74926.3370 279.6218 -89485.5129 -74891.7500 271.5543 -170.1733 -128.5639 256473.6171 -443.5515 -443.5635
TCL: namdcph) Proposal rejected.
TCL: Running for 500 steps without repeating first step
TCL: namdcph) Proposal rejected.
TCL: Running for 500 steps without repeating first step
ETITLE: TS BOND ANGLE DIHED IMPRP ELECT VDW BOUNDARY MISC KINETIC TOTAL TEMP POTENTIAL TOTAL3 TEMPAVG PRESSURE GPRESSURE VOLUME PRESSAVG GPRESSAVG
ENERGY: 3000 142.3474 490.1723 472.9635 29.9624 -98795.9994 8804.6862 0.0000 0.0000 14840.7486 -74015.1190 285.0297 -88855.8676 -73975.9016 282.6989 -236.4539 -191.0717 256473.6171 -279.3774 -279.3287
TCL: namdcph) Proposal rejected.
TCL: Running for 500 steps without repeating first step
TCL: namdcph) Proposal rejected.
TCL: Running for 500 steps without repeating first step
ETITLE: TS BOND ANGLE DIHED IMPRP ELECT VDW BOUNDARY MISC KINETIC TOTAL TEMP POTENTIAL TOTAL3 TEMPAVG PRESSURE GPRESSURE VOLUME PRESSAVG GPRESSAVG
ENERGY: 4000 141.8332 501.4493 478.4149 34.5180 -98121.7250 8735.7934 0.0000 0.0000 15166.8967 -73062.8196 291.2936 -88229.7163 -73028.4932 287.1649 -139.6627 -94.8570 256473.6171 -347.8069 -347.7112
TCL: namdcph) Proposal rejected.
TCL: Running for 500 steps without repeating first step
TCL: namdcph) Proposal rejected.
TCL: Running for 500 steps without repeating first step
ETITLE: TS BOND ANGLE DIHED IMPRP ELECT VDW BOUNDARY MISC KINETIC TOTAL TEMP POTENTIAL TOTAL3 TEMPAVG PRESSURE GPRESSURE VOLUME PRESSAVG GPRESSAVG
ENERGY: 5000 159.2085 504.2966 479.5533 33.1869 -97629.5903 8423.2022 0.0000 0.0000 15297.0231 -72733.1197 293.7928 -88030.1428 -72700.0920 292.3314 -280.4705 -240.6066 256473.6171 -259.9462 -259.8672
TCL: namdcph) Proposal rejected.
TCL: Running for 500 steps without repeating first step
TCL: namdcph) Proposal rejected.
TCL: Running for 500 steps without repeating first step
ETITLE: TS BOND ANGLE DIHED IMPRP ELECT VDW BOUNDARY MISC KINETIC TOTAL TEMP POTENTIAL TOTAL3 TEMPAVG PRESSURE GPRESSURE VOLUME PRESSAVG GPRESSAVG
ENERGY: 6000 155.5388 490.6847 472.9172 32.5285 -97495.2845 8482.4868 0.0000 0.0000 15527.6662 -72333.4622 298.2225 -87861.1284 -72293.8683 295.5735 -133.3109 -97.5750 256473.6171 -223.6698 -223.8528
TCL: namdcph) Proposal rejected.
TCL: Running for 500 steps without repeating first step
TCL: namdcph) Proposal rejected.
TCL: Running for 500 steps without repeating first step
ETITLE: TS BOND ANGLE DIHED IMPRP ELECT VDW BOUNDARY MISC KINETIC TOTAL TEMP POTENTIAL TOTAL3 TEMPAVG PRESSURE GPRESSURE VOLUME PRESSAVG GPRESSAVG
ENERGY: 7000 163.9929 428.9476 476.1757 32.7269 -97359.3940 8413.4466 0.0000 0.0000 15414.3260 -72429.7783 296.0457 -87844.1043 -72391.0160 295.6799 -231.2229 -191.2573 256473.6171 -186.8690 -186.9641
TCL: namdcph) Proposal rejected.
TCL: Running for 500 steps without repeating first step
TCL: namdcph) Proposal rejected.
TCL: Running for 500 steps without repeating first step
ETITLE: TS BOND ANGLE DIHED IMPRP ELECT VDW BOUNDARY MISC KINETIC TOTAL TEMP POTENTIAL TOTAL3 TEMPAVG PRESSURE GPRESSURE VOLUME PRESSAVG GPRESSAVG
ENERGY: 8000 159.1653 466.2807 480.4132 34.2004 -96955.7048 8319.6147 0.0000 0.0000 15533.8659 -71962.1647 298.3416 -87496.0306 -71927.4559 296.6586 -257.2454 -230.7010 256473.6171 -222.4943 -222.5177
TCL: namdcph) Proposal rejected.
TCL: Running for 500 steps without repeating first step
TCL: namdcph) Proposal rejected.
TCL: Running for 500 steps without repeating first step
ETITLE: TS BOND ANGLE DIHED IMPRP ELECT VDW BOUNDARY MISC KINETIC TOTAL TEMP POTENTIAL TOTAL3 TEMPAVG PRESSURE GPRESSURE VOLUME PRESSAVG GPRESSAVG
ENERGY: 9000 157.8340 488.6370 468.1531 36.9814 -97225.8668 8342.4731 0.0000 0.0000 15502.5961 -72229.1922 297.7410 -87731.7882 -72188.7391 297.4879 -215.9267 -183.8823 256473.6171 -127.1216 -127.1353
TCL: namdcph) Proposal rejected.
TCL: Running for 500 steps without repeating first step
TCL: namdcph) Proposal rejected.
TCL: Running for 500 steps without repeating first step
ETITLE: TS BOND ANGLE DIHED IMPRP ELECT VDW BOUNDARY MISC KINETIC TOTAL TEMP POTENTIAL TOTAL3 TEMPAVG PRESSURE GPRESSURE VOLUME PRESSAVG GPRESSAVG
ENERGY: 10000 165.3787 497.1570 483.8092 30.5375 -97098.8087 8330.9136 0.0000 0.0000 15324.4078 -72266.6049 294.3188 -87591.0127 -72227.3959 296.9344 -333.2929 -293.8001 256473.6171 -237.8656 -237.9591
TCL: namdcph) Proposal rejected.
TCL: Running for 500 steps without repeating first step
TCL: namdcph) Proposal rejected.
TCL: Running for 500 steps without repeating first step
ETITLE: TS BOND ANGLE DIHED IMPRP ELECT VDW BOUNDARY MISC KINETIC TOTAL TEMP POTENTIAL TOTAL3 TEMPAVG PRESSURE GPRESSURE VOLUME PRESSAVG GPRESSAVG
ENERGY: 11000 144.3300 473.0396 459.4625 29.9146 -97502.4854 8587.1682 0.0000 0.0000 15495.8063 -72312.7642 297.6106 -87808.5705 -72273.8061 296.7587 -63.0271 -30.4879 256473.6171 -137.4477 -137.3244
TCL: namdcph) Proposal rejected.
TCL: Running for 500 steps without repeating first step
TCL: namdcph) Proposal rejected.
TCL: Running for 500 steps without repeating first step
ETITLE: TS BOND ANGLE DIHED IMPRP ELECT VDW BOUNDARY MISC KINETIC TOTAL TEMP POTENTIAL TOTAL3 TEMPAVG PRESSURE GPRESSURE VOLUME PRESSAVG GPRESSAVG
ENERGY: 12000 147.6439 504.5092 478.1539 30.2319 -97026.2981 8175.0680 0.0000 0.0000 15578.5833 -72112.1080 299.2004 -87690.6913 -72069.6270 297.8813 -360.9121 -325.6685 256473.6171 -225.0462 -225.1410
TCL: namdcph) Proposal rejected.
TCL: Running for 500 steps without repeating first step
TCL: namdcph) Proposal rejected.
TCL: Running for 500 steps without repeating first step
ETITLE: TS BOND ANGLE DIHED IMPRP ELECT VDW BOUNDARY MISC KINETIC TOTAL TEMP POTENTIAL TOTAL3 TEMPAVG PRESSURE GPRESSURE VOLUME PRESSAVG GPRESSAVG
ENERGY: 13000 155.4318 492.9710 476.5647 33.5549 -97469.3142 8487.5902 0.0000 0.0000 15399.5328 -72423.6688 295.7616 -87823.2015 -72388.0286 296.6572 -183.0029 -148.0894 256473.6171 -178.6104 -178.5962
TCL: namdcph) Proposal rejected.
TCL: Running for 500 steps without repeating first step
TCL: namdcph) Proposal rejected.
TCL: Running for 500 steps without repeating first step
ETITLE: TS BOND ANGLE DIHED IMPRP ELECT VDW BOUNDARY MISC KINETIC TOTAL TEMP POTENTIAL TOTAL3 TEMPAVG PRESSURE GPRESSURE VOLUME PRESSAVG GPRESSAVG
ENERGY: 14000 161.8514 493.8776 475.3725 31.5347 -97253.8617 8414.6119 0.0000 0.0000 15508.2187 -72168.3949 297.8490 -87676.6136 -72135.9813 296.5024 -150.0859 -114.3786 256473.6171 -215.1354 -215.0497
TCL: namdcph) Proposal rejected.
TCL: Running for 500 steps without repeating first step
TCL: namdcph) Proposal rejected.
TCL: Running for 500 steps without repeating first step
ETITLE: TS BOND ANGLE DIHED IMPRP ELECT VDW BOUNDARY MISC KINETIC TOTAL TEMP POTENTIAL TOTAL3 TEMPAVG PRESSURE GPRESSURE VOLUME PRESSAVG GPRESSAVG
ENERGY: 15000 143.2034 515.2584 473.5925 35.7858 -97068.2730 8259.7092 0.0000 0.0000 15328.7661 -72311.9577 294.4025 -87640.7238 -72272.7596 297.0366 -376.9727 -338.6658 256473.6171 -148.6410 -148.5061
TCL: namdcph) Proposal rejected.
TCL: Running for 500 steps without repeating first step
TCL: namdcph) Proposal rejected.
TCL: Running for 500 steps without repeating first step
ETITLE: TS BOND ANGLE DIHED IMPRP ELECT VDW BOUNDARY MISC KINETIC TOTAL TEMP POTENTIAL TOTAL3 TEMPAVG PRESSURE GPRESSURE VOLUME PRESSAVG GPRESSAVG
ENERGY: 16000 175.0102 495.0391 471.0496 30.8738 -97194.0555 8216.6894 0.0000 0.0000 15649.1395 -72156.2539 300.5555 -87805.3934 -72125.1224 297.4930 -557.3843 -524.0802 256473.6171 -175.4303 -175.3114
TCL: namdcph) Proposal rejected.
TCL: Running for 500 steps without repeating first step
TCL: namdcph) Proposal rejected.
TCL: Running for 500 steps without repeating first step
ETITLE: TS BOND ANGLE DIHED IMPRP ELECT VDW BOUNDARY MISC KINETIC TOTAL TEMP POTENTIAL TOTAL3 TEMPAVG PRESSURE GPRESSURE VOLUME PRESSAVG GPRESSAVG
ENERGY: 17000 169.4148 457.8474 476.9044 30.9652 -97316.0986 8491.3628 0.0000 0.0000 15699.5041 -71990.1000 301.5228 -87689.6041 -71959.7710 298.9616 -80.0523 -49.9207 256473.6171 -152.6057 -152.6401
TCL: namdcph) Proposal rejected.
TCL: Running for 500 steps without repeating first step
TCL: namdcph) Proposal rejected.
TCL: Running for 500 steps without repeating first step
ETITLE: TS BOND ANGLE DIHED IMPRP ELECT VDW BOUNDARY MISC KINETIC TOTAL TEMP POTENTIAL TOTAL3 TEMPAVG PRESSURE GPRESSURE VOLUME PRESSAVG GPRESSAVG
ENERGY: 18000 158.5770 509.0228 477.7468 28.9967 -97064.5644 8342.0255 0.0000 0.0000 15605.8730 -71942.3226 299.7245 -87548.1956 -71905.9025 298.8492 -222.1047 -190.1772 256473.6171 -188.3355 -188.3495
TCL: namdcph) Proposal rejected.
TCL: Running for 500 steps without repeating first step
TCL: namdcph) Proposal rejected.
TCL: Running for 500 steps without repeating first step
ETITLE: TS BOND ANGLE DIHED IMPRP ELECT VDW BOUNDARY MISC KINETIC TOTAL TEMP POTENTIAL TOTAL3 TEMPAVG PRESSURE GPRESSURE VOLUME PRESSAVG GPRESSAVG
ENERGY: 19000 170.0182 479.4247 475.6644 38.4745 -97097.1306 8377.4880 0.0000 0.0000 15524.7445 -72031.3162 298.1664 -87556.0606 -71995.6035 298.8900 -258.5474 -221.9982 256473.6171 -186.7810 -186.6900
TCL: namdcph) Proposal rejected.
TCL: Running for 500 steps without repeating first step
TCL: namdcph) Proposal rejected.
TCL: Running for 500 steps without repeating first step
ETITLE: TS BOND ANGLE DIHED IMPRP ELECT VDW BOUNDARY MISC KINETIC TOTAL TEMP POTENTIAL TOTAL3 TEMPAVG PRESSURE GPRESSURE VOLUME PRESSAVG GPRESSAVG
ENERGY: 20000 154.5830 519.9790 475.6926 31.3756 -97329.9394 8504.9593 0.0000 0.0000 15497.9482 -72145.4017 297.6517 -87643.3499 -72109.7904 297.5838 -69.1190 -33.5171 256473.6171 -189.1600 -189.1671
TCL: namdcph) Proposal rejected.
TCL: Running for 500 steps without repeating first step
TCL: namdcph) Proposal rejected.
TCL: Running for 500 steps without repeating first step
ETITLE: TS BOND ANGLE DIHED IMPRP ELECT VDW BOUNDARY MISC KINETIC TOTAL TEMP POTENTIAL TOTAL3 TEMPAVG PRESSURE GPRESSURE VOLUME PRESSAVG GPRESSAVG
ENERGY: 21000 158.7422 491.9824 472.5932 28.5256 -97197.6029 8360.2790 0.0000 0.0000 15351.8862 -72333.5943 294.8465 -87685.4805 -72295.5038 295.8327 -251.6093 -220.7772 256473.6171 -199.6987 -199.7145
TCL: namdcph) Proposal rejected.
TCL: Running for 500 steps without repeating first step
TCL: namdcph) Proposal rejected.
TCL: Running for 500 steps without repeating first step
ETITLE: TS BOND ANGLE DIHED IMPRP ELECT VDW BOUNDARY MISC KINETIC TOTAL TEMP POTENTIAL TOTAL3 TEMPAVG PRESSURE GPRESSURE VOLUME PRESSAVG GPRESSAVG
ENERGY: 22000 152.9951 466.4984 467.8469 34.2854 -97266.3090 8208.3334 0.0000 0.0000 15459.3923 -72476.9573 296.9112 -87936.3497 -72435.3347 295.0736 -369.3501 -337.0297 256473.6171 -196.1937 -196.1637
TCL: namdcph) Proposal rejected.
TCL: Running for 500 steps without repeating first step
TCL: namdcph) Proposal rejected.
TCL: Running for 500 steps without repeating first step
ETITLE: TS BOND ANGLE DIHED IMPRP ELECT VDW BOUNDARY MISC KINETIC TOTAL TEMP POTENTIAL TOTAL3 TEMPAVG PRESSURE GPRESSURE VOLUME PRESSAVG GPRESSAVG
ENERGY: 23000 165.4253 505.1631 483.0224 34.0870 -97101.0302 8205.8120 0.0000 0.0000 15503.8446 -72203.6758 297.7650 -87707.5204 -72164.6364 295.6621 -518.3427 -486.8374 256473.6171 -212.3427 -212.3283
TCL: namdcph) Proposal rejected.
TCL: Running for 500 steps without repeating first step
TCL: namdcph) Proposal rejected.
TCL: Running for 500 steps without repeating first step
ETITLE: TS BOND ANGLE DIHED IMPRP ELECT VDW BOUNDARY MISC KINETIC TOTAL TEMP POTENTIAL TOTAL3 TEMPAVG PRESSURE GPRESSURE VOLUME PRESSAVG GPRESSAVG
ENERGY: 24000 158.7115 521.8174 481.1829 28.3490 -97240.3300 8458.2381 0.0000 0.0000 15498.9130 -72093.1181 297.6703 -87592.0311 -72052.6253 296.5918 -88.3697 -49.8959 256473.6171 -189.8391 -189.8310
TCL: namdcph) Proposal rejected.
TCL: Running for 500 steps without repeating first step
TCL: namdcph) Proposal rejected.
TCL: Running for 500 steps without repeating first step
ETITLE: TS BOND ANGLE DIHED IMPRP ELECT VDW BOUNDARY MISC KINETIC TOTAL TEMP POTENTIAL TOTAL3 TEMPAVG PRESSURE GPRESSURE VOLUME PRESSAVG GPRESSAVG
ENERGY: 25000 172.2813 495.0511 477.4970 29.9508 -97150.4888 8360.3083 0.0000 0.0000 15475.5495 -72139.8508 297.2216 -87615.4003 -72102.5524 297.1085 -237.1563 -203.9371 256473.6171 -181.6445 -181.6220
TCL: namdcph) Proposal rejected.
TCL: Running for 500 steps without repeating first step
TCL: namdcph) Proposal rejected.
TCL: Running for 500 steps without repeating first step
ETITLE: TS BOND ANGLE DIHED IMPRP ELECT VDW BOUNDARY MISC KINETIC TOTAL TEMP POTENTIAL TOTAL3 TEMPAVG PRESSURE GPRESSURE VOLUME PRESSAVG GPRESSAVG
ENERGY: 26000 150.9234 514.1760 467.9615 33.3255 -97359.0152 8702.5227 0.0000 0.0000 15359.5450 -72130.5611 294.9936 -87490.1061 -72091.0249 297.4593 191.3479 223.7691 256473.6171 -168.9464 -169.0077
TCL: namdcph) Proposal rejected.
TCL: Running for 500 steps without repeating first step
TCL: namdcph) Proposal rejected.
TCL: Running for 500 steps without repeating first step
ETITLE: TS BOND ANGLE DIHED IMPRP ELECT VDW BOUNDARY MISC KINETIC TOTAL TEMP POTENTIAL TOTAL3 TEMPAVG PRESSURE GPRESSURE VOLUME PRESSAVG GPRESSAVG
ENERGY: 27000 166.6742 483.4069 473.5656 31.5352 -96961.5109 8368.1930 0.0000 0.0000 15426.5637 -72011.5724 296.2807 -87438.1361 -71974.8254 298.0258 -323.0285 -284.4214 256473.6171 -246.7376 -246.6494
TCL: namdcph) Proposal rejected.
TCL: Running for 500 steps without repeating first step
TCL: namdcph) Proposal rejected.
TCL: Running for 500 steps without repeating first step
ETITLE: TS BOND ANGLE DIHED IMPRP ELECT VDW BOUNDARY MISC KINETIC TOTAL TEMP POTENTIAL TOTAL3 TEMPAVG PRESSURE GPRESSURE VOLUME PRESSAVG GPRESSAVG
ENERGY: 28000 167.3183 509.4738 469.7014 32.2701 -97302.7978 8464.8909 0.0000 0.0000 15474.9052 -72184.2381 297.2092 -87659.1433 -72144.8910 298.6897 -198.4854 -160.3521 256473.6171 -95.7785 -95.7835
TCL: namdcph) Proposal rejected.
TCL: Running for 500 steps without repeating first step
TCL: namdcph) Proposal rejected.
TCL: Running for 500 steps without repeating first step
ETITLE: TS BOND ANGLE DIHED IMPRP ELECT VDW BOUNDARY MISC KINETIC TOTAL TEMP POTENTIAL TOTAL3 TEMPAVG PRESSURE GPRESSURE VOLUME PRESSAVG GPRESSAVG
ENERGY: 29000 152.8247 525.2809 480.2780 29.3652 -96852.9527 8173.0129 0.0000 0.0000 15532.0537 -71960.1371 298.3068 -87492.1909 -71921.9591 297.8821 -350.3716 -317.3866 256473.6171 -161.3458 -161.3488
TCL: namdcph) Proposal rejected.
TCL: Running for 500 steps without repeating first step
TCL: namdcph) Proposal rejected.
TCL: Running for 500 steps without repeating first step
ETITLE: TS BOND ANGLE DIHED IMPRP ELECT VDW BOUNDARY MISC KINETIC TOTAL TEMP POTENTIAL TOTAL3 TEMPAVG PRESSURE GPRESSURE VOLUME PRESSAVG GPRESSAVG
ENERGY: 30000 159.5347 518.7228 464.6026 31.5506 -96962.1958 8308.7088 0.0000 0.0000 15599.1310 -71879.9453 299.5951 -87479.0763 -71842.1467 299.0426 -224.3402 -190.8011 256473.6171 -138.4690 -138.4850
TCL: namdcph) Proposal rejected.
TCL: Running for 500 steps without repeating first step
TCL: namdcph) Proposal rejected.
TCL: Running for 500 steps without repeating first step
ETITLE: TS BOND ANGLE DIHED IMPRP ELECT VDW BOUNDARY MISC KINETIC TOTAL TEMP POTENTIAL TOTAL3 TEMPAVG PRESSURE GPRESSURE VOLUME PRESSAVG GPRESSAVG
ENERGY: 31000 139.4820 500.3166 478.9956 39.4151 -97129.8031 8477.1460 0.0000 0.0000 15614.1371 -71880.3108 299.8833 -87494.4479 -71846.6229 299.0056 -107.9279 -82.0643 256473.6171 -187.1782 -187.1263
TCL: namdcph) Proposal rejected.
TCL: Running for 500 steps without repeating first step
TCL: namdcph) Proposal rejected.
TCL: Running for 500 steps without repeating first step
ETITLE: TS BOND ANGLE DIHED IMPRP ELECT VDW BOUNDARY MISC KINETIC TOTAL TEMP POTENTIAL TOTAL3 TEMPAVG PRESSURE GPRESSURE VOLUME PRESSAVG GPRESSAVG
ENERGY: 32000 153.5637 473.5921 472.3019 35.9767 -96814.1063 8222.6394 0.0000 0.0000 15542.7742 -71913.2582 298.5127 -87456.0325 -71872.0219 299.2244 -332.8444 -302.2617 256473.6171 -110.9953 -110.9523
TCL: namdcph) Proposal rejected.
TCL: Running for 500 steps without repeating first step
TCL: namdcph) Proposal rejected.
TCL: Running for 500 steps without repeating first step
ETITLE: TS BOND ANGLE DIHED IMPRP ELECT VDW BOUNDARY MISC KINETIC TOTAL TEMP POTENTIAL TOTAL3 TEMPAVG PRESSURE GPRESSURE VOLUME PRESSAVG GPRESSAVG
ENERGY: 33000 150.8100 500.0479 476.4566 27.9524 -97389.2604 8459.6347 0.0000 0.0000 15622.2692 -72152.0896 300.0394 -87774.3588 -72111.9539 298.2672 -160.8771 -126.1391 256473.6171 -140.4062 -140.3984
TCL: namdcph) Proposal rejected.
TCL: Running for 500 steps without repeating first step
TCL: namdcph) Proposal rejected.
TCL: Running for 500 steps without repeating first step
ETITLE: TS BOND ANGLE DIHED IMPRP ELECT VDW BOUNDARY MISC KINETIC TOTAL TEMP POTENTIAL TOTAL3 TEMPAVG PRESSURE GPRESSURE VOLUME PRESSAVG GPRESSAVG
ENERGY: 34000 137.1662 485.6621 481.2693 30.7706 -97491.6266 8510.5428 0.0000 0.0000 15531.3724 -72314.8431 298.2937 -87846.2155 -72277.8423 296.9936 -168.3153 -132.6997 256473.6171 -247.4772 -247.4400
TCL: namdcph) Proposal rejected.
TCL: Running for 500 steps without repeating first step
TCL: namdcph) Proposal rejected.
TCL: Running for 500 steps without repeating first step
ETITLE: TS BOND ANGLE DIHED IMPRP ELECT VDW BOUNDARY MISC KINETIC TOTAL TEMP POTENTIAL TOTAL3 TEMPAVG PRESSURE GPRESSURE VOLUME PRESSAVG GPRESSAVG
ENERGY: 35000 165.2628 468.1725 474.8578 38.0975 -96899.4867 8072.1085 0.0000 0.0000 15399.2974 -72281.6903 295.7571 -87680.9877 -72244.9854 296.9134 -599.4925 -559.5418 256473.6171 -242.4885 -242.4190
TCL: namdcph) Proposal rejected.
TCL: Running for 500 steps without repeating first step
TCL: namdcph) Proposal rejected.
TCL: Running for 500 steps without repeating first step
ETITLE: TS BOND ANGLE DIHED IMPRP ELECT VDW BOUNDARY MISC KINETIC TOTAL TEMP POTENTIAL TOTAL3 TEMPAVG PRESSURE GPRESSURE VOLUME PRESSAVG GPRESSAVG
ENERGY: 36000 140.5373 455.3996 478.8324 32.4018 -96698.3856 8239.3373 0.0000 0.0000 15331.2579 -72020.6193 294.4503 -87351.8772 -71979.0850 297.6017 -184.3971 -152.4948 256473.6171 -233.1328 -233.1679
TCL: namdcph) Proposal rejected.
TCL: Running for 500 steps without repeating first step
TCL: namdcph) Proposal rejected.
TCL: Running for 500 steps without repeating first step
ETITLE: TS BOND ANGLE DIHED IMPRP ELECT VDW BOUNDARY MISC KINETIC TOTAL TEMP POTENTIAL TOTAL3 TEMPAVG PRESSURE GPRESSURE VOLUME PRESSAVG GPRESSAVG
ENERGY: 37000 153.5893 506.3325 466.8213 32.4727 -96998.8686 8261.2508 0.0000 0.0000 15601.1886 -71977.2134 299.6346 -87578.4020 -71947.5287 298.2821 -209.6575 -172.4132 256473.6171 -192.8794 -192.8359
TCL: namdcph) Proposal rejected.
TCL: Running for 500 steps without repeating first step
TCL: namdcph) Proposal rejected.
TCL: Running for 500 steps without repeating first step
ETITLE: TS BOND ANGLE DIHED IMPRP ELECT VDW BOUNDARY MISC KINETIC TOTAL TEMP POTENTIAL TOTAL3 TEMPAVG PRESSURE GPRESSURE VOLUME PRESSAVG GPRESSAVG
ENERGY: 38000 155.9401 514.7838 461.4715 32.0327 -97224.8795 8373.5120 0.0000 0.0000 15477.8930 -72209.2465 297.2666 -87687.1394 -72178.9355 298.4338 -251.2542 -217.8579 256473.6171 -172.1881 -172.2023
TCL: namdcph) Proposal rejected.
TCL: Running for 500 steps without repeating first step
TCL: namdcph) Proposal rejected.
TCL: Running for 500 steps without repeating first step
