Info: SIMULATION PARAMETERS:
Info: TIMESTEP               2
Info: NUMBER OF STEPS        0
Info: STEPS PER CYCLE        20
Info: PERIODIC CELL BASIS 1  44.2205 0 0
Info: PERIODIC CELL BASIS 2  0 56.6757 0
Info: PERIODIC CELL BASIS 3  0 0 104.224
Info: PERIODIC CELL CENTER   0.147329 1.06646 2.8626
Info: WRAPPING WATERS AROUND PERIODIC BOUNDARIES ON OUTPUT.
Info: WRAPPING ALL CLUSTERS AROUND PERIODIC BOUNDARIES ON OUTPUT.
Info: FIRST LDB TIMESTEP     100
Info: LAST LDB TIMESTEP     -1
Info: HOM BACKGROUND SCALING 1
Info: PME BACKGROUND SCALING 1
Info: MIN ATOMS PER PATCH    40
Info: INITIAL TEMPERATURE    298
Info: CENTER OF MASS MOVING INITIALLY? NO
Info: DIELECTRIC             1
Info: EXCLUDE                SCALED ONE-FOUR
Info: 1-4 ELECTROSTATICS SCALED BY 1
Info: MODIFIED 1-4 VDW PARAMETERS WILL BE USED
Info: DCD FILENAME           3/Pre3_0.dcd
Info: DCD FREQUENCY          1000
Info: DCD FIRST STEP         1000
Info: DCD FILE WILL CONTAIN UNIT CELL DATA
Info: NO EXTENDED SYSTEM TRAJECTORY OUTPUT
Info: NO VELOCITY DCD OUTPUT
Info: NO FORCE DCD OUTPUT
Info: OUTPUT FILENAME        3/Pre3_0
Info: BINARY OUTPUT FILES WILL BE USED
Info: NO RESTART FILE
Info: SWITCHING ACTIVE
Info: VDW FORCE SWITCHING ACTIVE
Info: SWITCHING ON           10
Info: SWITCHING OFF          12
Info: PAIRLIST DISTANCE      14
Info: PAIRLIST SHRINK RATE   0.01
Info: PAIRLIST GROW RATE     0.01
Info: PAIRLIST TRIGGER       0.3
Info: PAIRLISTS PER CYCLE    2
Info: PAIRLISTS ENABLED
Info: MARGIN                 2
Info: HYDROGEN GROUP CUTOFF  2.5
Info: PATCH DIMENSION        18.5
Info: ENERGY OUTPUT STEPS    1000
Info: CROSSTERM ENERGY INCLUDED IN DIHEDRAL
Info: TIMING OUTPUT STEPS    10000
Info: THERMODYNAMIC INTEGRATION (TI) ON
Info: TI LAMBDA VALUE     0
Info: TI INTRA-ALCHEMICAL NON-BONDED INTERACTIONS WILL BE DECOUPLED
Info: TI INTRA-ALCHEMICAL BONDED INTERACTIONS WILL BE DECOUPLED
Info: TI VDW SHIFTING COEFFICIENT 0
Info: TI ELEC. ACTIVE FOR ANNIHILATED PARTICLES BETWEEN LAMBDA = 0 AND LAMBDA = 1
Info: TI ELEC. ACTIVE FOR EXNIHILATED PARTICLES BETWEEN LAMBDA = 0 AND LAMBDA = 1
Info: TI VDW ACTIVE FOR ANNIHILATED PARTICLES BETWEEN LAMBDA = 0 AND LAMBDA = 1
Info: TI VDW ACTIVE FOR EXNIHILATED PARTICLES BETWEEN LAMBDA = 0 AND LAMBDA = 1
Info: TI BOND ACTIVE FOR ANNIHILATED PARTICLES BETWEEN LAMBDA = 0 AND LAMBDA = 1
Info: TI BOND ACTIVE FOR EXNIHILATED PARTICLES BETWEEN LAMBDA = 0 AND LAMBDA = 1
Info: LANGEVIN DYNAMICS ACTIVE
Info: LANGEVIN TEMPERATURE   298
Info: LANGEVIN USING BBK INTEGRATOR
Info: LANGEVIN DAMPING COEFFICIENT IS 1 INVERSE PS
Info: LANGEVIN DYNAMICS NOT APPLIED TO HYDROGENS
Info: PARTICLE MESH EWALD (PME) ACTIVE
Info: PME TOLERANCE               1e-06
Info: PME EWALD COEFFICIENT       0.257952
Info: PME INTERPOLATION ORDER     4
Info: PME GRID DIMENSIONS         48 60 108
Info: PME MAXIMUM GRID SPACING    1
Info: FULL ELECTROSTATIC EVALUATION FREQUENCY      2
Info: USING VERLET I (r-RESPA) MTS SCHEME.
Info: C1 SPLITTING OF LONG RANGE ELECTROSTATICS
Info: PLACING ATOMS IN PATCHES BY HYDROGEN GROUPS
Info: RIGID BONDS TO HYDROGEN : ALL
Info:         ERROR TOLERANCE : 1e-08
Info:          MAX ITERATIONS : 100
Info: RIGID WATER USING SETTLE ALGORITHM
Info: RANDOM NUMBER SEED     1688998772
Info: USE HYDROGEN BONDS?    NO
Info: COORDINATE PDB         ../topology/preD936Y.pdb
Info: STRUCTURE FILE         ../topology/preD936Y.psf
Info: PARAMETER file: CHARMM format!
Info: PARAMETERS             ../../toppar/par_all36_carb.prm
Info: PARAMETERS             ../../toppar/par_all36_cgenff.prm
Info: PARAMETERS             ../../toppar/par_all36_lipid.prm
Info: PARAMETERS             ../../toppar/par_all36_na.prm
Info: PARAMETERS             ../../toppar/par_all36_prot.prm
Info: PARAMETERS             ../../toppar/par_all36_solvent.prm
Info: PARAMETERS             ../../toppar/par_cph36_prot.prm
Info: PARAMETERS             ../../toppar/toppar_all36_carb_glycopeptide.str
Info: PARAMETERS             ../../toppar/toppar_water_ions_namd.str
Info: USING ARITHMETIC MEAN TO COMBINE L-J SIGMA PARAMETERS
Info: SKIPPING rtf SECTION IN STREAM FILE
Info: SKIPPING rtf SECTION IN STREAM FILE
Info: SUMMARY OF PARAMETERS:
Info: 925 BONDS
Info: 2696 ANGLES
Info: 6608 DIHEDRAL
Info: 195 IMPROPER
Info: 6 CROSSTERM
Info: 366 VDW
Info: 6 VDW_PAIRS
Info: 0 NBTHOLE_PAIRS
Info: READING EXTRA BONDS FILE 3/namdcph.sw.extrabonds
Info: To read alchdata from file: coordinate pdb file (default)
Info: To read alchflag data from column: 5
Info: LONG-RANGE LJ: APPLYING ANALYTICAL CORRECTIONS TO ENERGY AND PRESSURE
Info: LONG-RANGE LJ: AVERAGE A0 AND B0 COEFFICIENTS 70903.5 AND 74.5485
Info: LONG-RANGE LJ: AVERAGE A1 AND B1 COEFFICIENTS 70903.5 AND 74.5485
Info: STRUCTURE SUMMARY:
Info: 26518 ATOMS
Info: 17936 BONDS
Info: 10102 ANGLES
Info: 2276 DIHEDRALS
Info: 173 IMPROPERS
Info: 54 CROSSTERMS
Info: 0 EXCLUSIONS
Info: 26041 RIGID BONDS
Info: ALCH: 0 ATOMS TO DISAPPEAR IN FINAL STATE
Info: ALCH: 0 ATOMS TO APPEAR IN FINAL STATE
Info: 53513 DEGREES OF FREEDOM
Info: 9011 HYDROGEN GROUPS
Info: 4 ATOMS IN LARGEST HYDROGEN GROUP
Info: 9011 MIGRATION GROUPS
Info: 4 ATOMS IN LARGEST MIGRATION GROUP
Info: TOTAL MASS = 161285 amu
Info: TOTAL CHARGE = 4.20958e-07 e
Info: MASS DENSITY = 1.02534 g/cm^3
Info: ATOM DENSITY = 0.101521 atoms/A^3
Info: ADDED 30305 IMPLICIT EXCLUSIONS
Info: NONBONDED TABLE R-SQUARED SPACING: 0.0625
Info: NONBONDED TABLE SIZE: 769 POINTS
Info: REMOVING COM VELOCITY 0.0165277 0.00809409 0.00449755
TCL: Setting parameter alchLambdaFreq to 1
Info: NONBONDED TABLE R-SQUARED SPACING: 0.0625
Info: NONBONDED TABLE SIZE: 769 POINTS
TCL: Setting parameter alch to off
Info: NONBONDED TABLE R-SQUARED SPACING: 0.0625
Info: NONBONDED TABLE SIZE: 769 POINTS
TCL: namdcph) initializing constant pH PSF...
TCL: WARNING! Building new atom PP1:918:HE1 with unknown mass.
TCL:          This may cause issues, for example, with mass repartitioning.
TCL: WARNING! Building new atom PP1:918:HE2 with unknown mass.
TCL:          This may cause issues, for example, with mass repartitioning.
TCL: WARNING! Building new atom PP1:950:HD1 with unknown mass.
TCL:          This may cause issues, for example, with mass repartitioning.
TCL: WARNING! Building new atom PP1:950:HD2 with unknown mass.
TCL:          This may cause issues, for example, with mass repartitioning.
TCL: cphpsfgen) creating new alchemical side chain for PP1:918:GLU
TCL: cphpsfgen) merging alchemical sidechains for PP1:918:GLU
TCL: cphpsfgen) creating new alchemical side chain for PP1:921:LYS
TCL: cphpsfgen) merging alchemical sidechains for PP1:921:LYS
TCL: cphpsfgen) creating new alchemical side chain for PP1:933:LYS
TCL: cphpsfgen) merging alchemical sidechains for PP1:933:LYS
TCL: cphpsfgen) creating new alchemical side chain for PP1:947:LYS
TCL: cphpsfgen) merging alchemical sidechains for PP1:947:LYS
TCL: cphpsfgen) creating new alchemical side chain for PP1:950:ASP
TCL: cphpsfgen) merging alchemical sidechains for PP1:950:ASP
TCL: cphpsfgen) creating new alchemical side chain for PP1:964:LYS
TCL: cphpsfgen) merging alchemical sidechains for PP1:964:LYS
TCL: namdcph) ***************************************
TCL: namdcph) CONSTANT pH MD ACTIVE
TCL: namdcph) SYSTEM pH 3
TCL: namdcph) CONSTANT pH CONFIGURATION FILE(S)
TCL: namdcph) ../../toppar/conf_cph36_prot.json
TCL: namdcph) NONEQUILIBRIUM SWITCH PARAMETERS:
TCL: namdcph) ALCHEMICAL FORCE CONSTANT 100.0 kcal/mol-A^2
TCL: namdcph) neMD/MC CRITERION TEMPERATURE 298.0
TCL: namdcph) TEMPORARY FILE INFORMATION:
TCL: namdcph) cpH TOPOLOGY FILE BASENAME 3/namdcph.md
TCL: namdcph) neMD/MC TRAJECTORY BASENAME 3/namdcph.sw
TCL: namdcph) ***************************************
TCL: namdcph) ***************************************
TCL: namdcph) TITRATABLE RESIDUE DEFINITIONS:
TCL: namdcph) HIS ASP GLU CYS LYS
TCL: namdcph) TITRATABLE SYSTEM SUMMARY:
TCL: namdcph) 6 RESIDUE(S)
TCL: namdcph) 16 PROTONATION SITE(S)
TCL: namdcph) ***************************************
TCL: namdcph) segid:resid:resname : state : pKai
TCL: namdcph) PP1:918:GLU         :     1 : 5.90
TCL: namdcph) PP1:921:LYS         :     P : 9.77
TCL: namdcph) PP1:933:LYS         :     P : 9.53
TCL: namdcph) PP1:947:LYS         :     P : 9.82
TCL: namdcph) PP1:950:ASP         :     1 : 5.51
TCL: namdcph) PP1:964:LYS         :     P : 9.68
TCL: namdcph) ***************************************
TCL: namdcph) *************************************************
TCL: namdcph) CONSTANT pH neMD/MC MOVES:
TCL: namdcph) MAX. ATTEMPTS PER CYCLE: 1
TCL: namdcph) ONE RESIDUE MOVES
TCL: namdcph) move label     : numsteps   weight
TCL: namdcph) PP1:918:GLU    :    75000     1.00
TCL: namdcph) PP1:921:LYS    :    75000     1.00
TCL: namdcph) PP1:933:LYS    :    75000     1.00
TCL: namdcph) PP1:947:LYS    :    75000     1.00
TCL: namdcph) PP1:950:ASP    :    75000     1.00
TCL: namdcph) PP1:964:LYS    :    75000     1.00
TCL: namdcph) *************************************************
TCL: namdcph) clearing extraBondsFile 3/namdcph.sw.extrabonds
TCL: Reloading molecular structure from file 3/namdcph.md.psf and pdb file 3/namdcph.md.pdb
Info: READING EXTRA BONDS FILE 3/namdcph.sw.extrabonds
Info: LONG-RANGE LJ: APPLYING ANALYTICAL CORRECTIONS TO ENERGY AND PRESSURE
Info: LONG-RANGE LJ: AVERAGE A AND B COEFFICIENTS 70902 AND 74.5446
Info: STRUCTURE SUMMARY:
Info: 26522 ATOMS
Info: 17940 BONDS
Info: 10106 ANGLES
Info: 2284 DIHEDRALS
Info: 173 IMPROPERS
Info: 54 CROSSTERMS
Info: 0 EXCLUSIONS
Info: 26045 RIGID BONDS
Info: 53521 DEGREES OF FREEDOM
Info: 9011 HYDROGEN GROUPS
Info: 4 ATOMS IN LARGEST HYDROGEN GROUP
Info: 9011 MIGRATION GROUPS
Info: 4 ATOMS IN LARGEST MIGRATION GROUP
Info: TOTAL MASS = 161289 amu
Info: TOTAL CHARGE = 2 e
Info: MASS DENSITY = 1.02536 g/cm^3
Info: ATOM DENSITY = 0.101536 atoms/A^3
Info: ADDED 30321 IMPLICIT EXCLUSIONS
Info: NONBONDED TABLE R-SQUARED SPACING: 0.0625
Info: NONBONDED TABLE SIZE: 769 POINTS
TCL: Reinitializing atom data from files with basename 3/namdcph.md
Info: REMOVING COM VELOCITY 0.00165981 0.00127314 -0.000857792
TCL: Minimizing for 300 steps
ETITLE: TS BOND ANGLE DIHED IMPRP ELECT VDW BOUNDARY MISC KINETIC TOTAL TEMP POTENTIAL TOTAL3 TEMPAVG PRESSURE GPRESSURE VOLUME PRESSAVG GPRESSAVG
ENERGY: 0 63.3716 104.9669 440.8828 0.5654 -84312.3538 99999999999.9999 0.0000 0.0000 0.0000 99999999999.9999 0.0000 99999999999.9999 99999999999.9999 0.0000 99999999999.9999 99999999999.9999 261208.0433 99999999999.9999 99999999999.9999
ENERGY: 60 54.7276 132.7740 432.5247 8.5550 -97921.4801 11805.0365 0.0000 0.0000 0.0000 -85487.8624 0.0000 -85487.8624 -85487.8624 0.0000 23657.5610 4386.4843 261208.0433 23657.5610 4386.4843
ENERGY: 120 395.0471 221.3910 428.4243 8.1708 -102994.5431 9670.6532 0.0000 0.0000 0.0000 -92270.8567 0.0000 -92270.8567 -92270.8567 0.0000 20779.3212 485.7845 261208.0433 20779.3212 485.7845
ENERGY: 180 201.7799 179.1031 432.3825 11.0921 -105800.9559 9072.4768 0.0000 0.0000 0.0000 -95904.1215 0.0000 -95904.1215 -95904.1215 0.0000 19759.2368 -1148.8819 261208.0433 19759.2368 -1148.8819
ENERGY: 240 51.5804 200.8778 425.5869 14.8429 -107441.2166 9011.0988 0.0000 0.0000 0.0000 -97737.2297 0.0000 -97737.2297 -97737.2297 0.0000 19636.7042 19532.1653 261208.0433 19636.7042 19532.1653
ENERGY: 300 100.6444 205.7072 422.2248 11.4687 -109462.4239 9147.6420 0.0000 0.0000 0.0000 -99574.7369 0.0000 -99574.7369 -99574.7369 0.0000 19579.0364 19501.8326 261208.0433 19579.0364 19501.8326
TCL: Setting parameter firstTimeStep to 0
TCL: Running for 500 steps
ETITLE: TS BOND ANGLE DIHED IMPRP ELECT VDW BOUNDARY MISC KINETIC TOTAL TEMP POTENTIAL TOTAL3 TEMPAVG PRESSURE GPRESSURE VOLUME PRESSAVG GPRESSAVG
ENERGY: 0 100.6444 205.7072 422.2248 11.4687 -109462.4239 9147.6420 0.0000 0.0000 16033.9709 -83540.7660 301.5138 -99574.7369 -83561.0550 301.5138 -2962.2861 -2892.1528 261208.0433 -2962.2861 -2892.1528
TCL: namdcph) Proposal rejected.
TCL: Running for 500 steps without repeating first step
ETITLE: TS BOND ANGLE DIHED IMPRP ELECT VDW BOUNDARY MISC KINETIC TOTAL TEMP POTENTIAL TOTAL3 TEMPAVG PRESSURE GPRESSURE VOLUME PRESSAVG GPRESSAVG
ENERGY: 1000 141.4482 454.9777 465.2494 30.0655 -104044.6547 9804.3660 0.0000 0.0000 13858.2658 -79290.2822 260.6004 -93148.5480 -79258.9378 240.7076 -311.2039 -269.7550 261208.0433 -446.9120 -446.9977
TCL: namdcph) Proposal rejected.
TCL: Running for 500 steps without repeating first step
TCL: namdcph) Proposal rejected.
TCL: Running for 500 steps without repeating first step
ETITLE: TS BOND ANGLE DIHED IMPRP ELECT VDW BOUNDARY MISC KINETIC TOTAL TEMP POTENTIAL TOTAL3 TEMPAVG PRESSURE GPRESSURE VOLUME PRESSAVG GPRESSAVG
ENERGY: 2000 153.4745 471.4303 480.5299 28.6078 -101982.1275 9192.5791 0.0000 0.0000 14737.3163 -76918.1895 277.1307 -91655.5058 -76882.9984 269.3134 -428.0034 -388.4431 261208.0433 -382.6147 -382.5957
TCL: namdcph) Proposal rejected.
TCL: Running for 500 steps without repeating first step
TCL: namdcph) Proposal rejected.
TCL: Running for 500 steps without repeating first step
ETITLE: TS BOND ANGLE DIHED IMPRP ELECT VDW BOUNDARY MISC KINETIC TOTAL TEMP POTENTIAL TOTAL3 TEMPAVG PRESSURE GPRESSURE VOLUME PRESSAVG GPRESSAVG
ENERGY: 3000 157.7873 495.0237 468.4896 34.4311 -100915.5135 8938.7154 0.0000 0.0000 15148.2104 -75672.8561 284.8574 -90821.0664 -75641.9865 281.3804 -328.1247 -292.0616 261208.0433 -234.0902 -234.0501
TCL: namdcph) Proposal rejected.
TCL: Running for 500 steps without repeating first step
TCL: namdcph) Proposal rejected.
TCL: Running for 500 steps without repeating first step
ETITLE: TS BOND ANGLE DIHED IMPRP ELECT VDW BOUNDARY MISC KINETIC TOTAL TEMP POTENTIAL TOTAL3 TEMPAVG PRESSURE GPRESSURE VOLUME PRESSAVG GPRESSAVG
ENERGY: 4000 169.0776 481.2776 471.1643 25.7417 -100367.4207 8925.3485 0.0000 0.0000 15526.9880 -74767.8230 291.9802 -90294.8110 -74734.1758 288.6720 -119.5077 -85.4250 261208.0433 -245.7887 -245.7834
TCL: namdcph) Proposal rejected.
TCL: Running for 500 steps without repeating first step
TCL: namdcph) Proposal rejected.
TCL: Running for 500 steps without repeating first step
ETITLE: TS BOND ANGLE DIHED IMPRP ELECT VDW BOUNDARY MISC KINETIC TOTAL TEMP POTENTIAL TOTAL3 TEMPAVG PRESSURE GPRESSURE VOLUME PRESSAVG GPRESSAVG
ENERGY: 5000 172.7926 479.0922 473.8108 27.6241 -99911.0505 8732.2380 0.0000 0.0000 15723.6927 -74301.8001 295.6792 -90025.4928 -74262.7059 292.1146 -322.1823 -295.7357 261208.0433 -147.4086 -147.3365
TCL: namdcph) Proposal rejected.
TCL: Running for 500 steps without repeating first step
TCL: namdcph) Proposal rejected.
TCL: Running for 500 steps without repeating first step
ETITLE: TS BOND ANGLE DIHED IMPRP ELECT VDW BOUNDARY MISC KINETIC TOTAL TEMP POTENTIAL TOTAL3 TEMPAVG PRESSURE GPRESSURE VOLUME PRESSAVG GPRESSAVG
ENERGY: 6000 164.4029 449.3951 476.4987 28.8930 -99564.1100 8465.8730 0.0000 0.0000 15570.9710 -74408.0763 292.8073 -89979.0472 -74373.3003 292.7613 -529.7308 -494.5962 261208.0433 -216.0381 -215.9397
TCL: namdcph) Proposal rejected.
TCL: Running for 500 steps without repeating first step
TCL: namdcph) Proposal rejected.
TCL: Running for 500 steps without repeating first step
ETITLE: TS BOND ANGLE DIHED IMPRP ELECT VDW BOUNDARY MISC KINETIC TOTAL TEMP POTENTIAL TOTAL3 TEMPAVG PRESSURE GPRESSURE VOLUME PRESSAVG GPRESSAVG
ENERGY: 7000 128.5198 485.5074 466.8630 28.6879 -99335.7134 8563.5535 0.0000 0.0000 15537.0072 -74125.5748 292.1686 -89662.5820 -74094.4057 293.0601 -179.2000 -139.2039 261208.0433 -222.5576 -222.5778
TCL: namdcph) Proposal rejected.
TCL: Running for 500 steps without repeating first step
TCL: namdcph) Proposal rejected.
TCL: Running for 500 steps without repeating first step
ETITLE: TS BOND ANGLE DIHED IMPRP ELECT VDW BOUNDARY MISC KINETIC TOTAL TEMP POTENTIAL TOTAL3 TEMPAVG PRESSURE GPRESSURE VOLUME PRESSAVG GPRESSAVG
ENERGY: 8000 156.1205 507.1083 478.9181 28.6288 -99517.5524 8560.0880 0.0000 0.0000 15626.2894 -74160.3992 293.8475 -89786.6886 -74120.1794 294.7642 -254.0869 -224.8211 261208.0433 -189.8236 -189.8019
TCL: namdcph) Proposal rejected.
TCL: Running for 500 steps without repeating first step
TCL: namdcph) Proposal rejected.
TCL: Running for 500 steps without repeating first step
ETITLE: TS BOND ANGLE DIHED IMPRP ELECT VDW BOUNDARY MISC KINETIC TOTAL TEMP POTENTIAL TOTAL3 TEMPAVG PRESSURE GPRESSURE VOLUME PRESSAVG GPRESSAVG
ENERGY: 9000 171.1950 502.4803 471.6413 25.8918 -99452.2277 8656.6075 0.0000 0.0000 15563.8650 -74060.5468 292.6736 -89624.4118 -74024.7231 294.5103 -224.4185 -179.8489 261208.0433 -198.0863 -198.1638
TCL: namdcph) Proposal rejected.
TCL: Running for 500 steps without repeating first step
TCL: namdcph) Proposal rejected.
TCL: Running for 500 steps without repeating first step
ETITLE: TS BOND ANGLE DIHED IMPRP ELECT VDW BOUNDARY MISC KINETIC TOTAL TEMP POTENTIAL TOTAL3 TEMPAVG PRESSURE GPRESSURE VOLUME PRESSAVG GPRESSAVG
ENERGY: 10000 169.2490 511.1351 470.8463 27.1187 -99572.8038 8749.5665 0.0000 0.0000 15717.6205 -73927.2677 295.5650 -89644.8882 -73884.0202 296.1548 -134.6912 -103.4357 261208.0433 -208.3386 -208.3928
TCL: namdcph) Proposal rejected.
TCL: Running for 500 steps without repeating first step
TCL: namdcph) Proposal rejected.
TCL: Running for 500 steps without repeating first step
ETITLE: TS BOND ANGLE DIHED IMPRP ELECT VDW BOUNDARY MISC KINETIC TOTAL TEMP POTENTIAL TOTAL3 TEMPAVG PRESSURE GPRESSURE VOLUME PRESSAVG GPRESSAVG
ENERGY: 11000 178.5804 501.4716 479.5658 29.7638 -99243.3289 8585.0489 0.0000 0.0000 15756.1398 -73712.7587 296.2893 -89468.8985 -73678.2538 296.6538 -244.5632 -210.2169 261208.0433 -177.6585 -177.7231
TCL: namdcph) Proposal rejected.
TCL: Running for 500 steps without repeating first step
TCL: namdcph) Proposal rejected.
TCL: Running for 500 steps without repeating first step
ETITLE: TS BOND ANGLE DIHED IMPRP ELECT VDW BOUNDARY MISC KINETIC TOTAL TEMP POTENTIAL TOTAL3 TEMPAVG PRESSURE GPRESSURE VOLUME PRESSAVG GPRESSAVG
ENERGY: 12000 177.6000 516.3212 479.5878 28.6484 -99188.9956 8628.9514 0.0000 0.0000 15813.8982 -73543.9885 297.3754 -89357.8867 -73506.8606 298.4783 -73.8899 -36.0244 261208.0433 -108.1022 -108.1126
TCL: namdcph) Proposal rejected.
TCL: Running for 500 steps without repeating first step
TCL: namdcph) Proposal rejected.
TCL: Running for 500 steps without repeating first step
ETITLE: TS BOND ANGLE DIHED IMPRP ELECT VDW BOUNDARY MISC KINETIC TOTAL TEMP POTENTIAL TOTAL3 TEMPAVG PRESSURE GPRESSURE VOLUME PRESSAVG GPRESSAVG
ENERGY: 13000 171.5514 495.7691 471.1814 28.6739 -99293.9683 8562.6083 0.0000 0.0000 15916.1204 -73648.0638 299.2977 -89564.1842 -73609.9382 297.9724 -137.9292 -105.1839 261208.0433 -73.2888 -73.2264
TCL: namdcph) Proposal rejected.
TCL: Running for 500 steps without repeating first step
TCL: namdcph) Proposal rejected.
TCL: Running for 500 steps without repeating first step
ETITLE: TS BOND ANGLE DIHED IMPRP ELECT VDW BOUNDARY MISC KINETIC TOTAL TEMP POTENTIAL TOTAL3 TEMPAVG PRESSURE GPRESSURE VOLUME PRESSAVG GPRESSAVG
ENERGY: 14000 169.4293 507.9217 460.6076 32.7159 -99577.0599 8880.2781 0.0000 0.0000 15768.3209 -73757.7864 296.5184 -89526.1073 -73718.8117 297.8767 127.4640 160.6100 261208.0433 -89.9061 -89.9075
TCL: namdcph) Proposal rejected.
TCL: Running for 500 steps without repeating first step
TCL: namdcph) Proposal rejected.
TCL: Running for 500 steps without repeating first step
ETITLE: TS BOND ANGLE DIHED IMPRP ELECT VDW BOUNDARY MISC KINETIC TOTAL TEMP POTENTIAL TOTAL3 TEMPAVG PRESSURE GPRESSURE VOLUME PRESSAVG GPRESSAVG
ENERGY: 15000 171.0393 488.4237 471.1222 27.3873 -99509.5213 8726.1633 0.0000 0.0000 15958.0404 -73667.3450 300.0860 -89625.3854 -73629.2744 297.7965 -105.9343 -72.9808 261208.0433 -60.6431 -60.6614
TCL: namdcph) Proposal rejected.
TCL: Running for 500 steps without repeating first step
TCL: namdcph) Proposal rejected.
TCL: Running for 500 steps without repeating first step
ETITLE: TS BOND ANGLE DIHED IMPRP ELECT VDW BOUNDARY MISC KINETIC TOTAL TEMP POTENTIAL TOTAL3 TEMPAVG PRESSURE GPRESSURE VOLUME PRESSAVG GPRESSAVG
ENERGY: 16000 158.8079 456.7818 466.7468 31.1329 -99388.7208 8691.8848 0.0000 0.0000 15947.1164 -73636.2502 299.8806 -89583.3665 -73593.4133 297.6904 -9.7130 26.1742 261208.0433 -84.1136 -84.0841
TCL: namdcph) Proposal rejected.
TCL: Running for 500 steps without repeating first step
TCL: namdcph) Proposal rejected.
TCL: Running for 500 steps without repeating first step
ETITLE: TS BOND ANGLE DIHED IMPRP ELECT VDW BOUNDARY MISC KINETIC TOTAL TEMP POTENTIAL TOTAL3 TEMPAVG PRESSURE GPRESSURE VOLUME PRESSAVG GPRESSAVG
ENERGY: 17000 159.9461 486.3045 481.5274 39.0558 -99377.4823 8590.8180 0.0000 0.0000 15929.1206 -73690.7097 299.5422 -89619.8304 -73652.4182 296.8063 -204.3787 -175.1242 261208.0433 -96.6099 -96.6265
TCL: namdcph) Proposal rejected.
TCL: Running for 500 steps without repeating first step
TCL: namdcph) Proposal rejected.
TCL: Running for 500 steps without repeating first step
ETITLE: TS BOND ANGLE DIHED IMPRP ELECT VDW BOUNDARY MISC KINETIC TOTAL TEMP POTENTIAL TOTAL3 TEMPAVG PRESSURE GPRESSURE VOLUME PRESSAVG GPRESSAVG
ENERGY: 18000 151.7560 447.9594 477.2946 29.9176 -99287.8054 8729.5062 0.0000 0.0000 15685.5560 -73765.8155 294.9620 -89451.3715 -73728.7662 296.4843 1.8639 39.5464 261208.0433 -123.5239 -123.5356
TCL: namdcph) Proposal rejected.
TCL: Running for 500 steps without repeating first step
TCL: namdcph) Proposal rejected.
TCL: Running for 500 steps without repeating first step
ETITLE: TS BOND ANGLE DIHED IMPRP ELECT VDW BOUNDARY MISC KINETIC TOTAL TEMP POTENTIAL TOTAL3 TEMPAVG PRESSURE GPRESSURE VOLUME PRESSAVG GPRESSAVG
ENERGY: 19000 179.3757 505.6037 477.7787 29.4375 -99267.6393 8639.3279 0.0000 0.0000 15888.1240 -73547.9918 298.7712 -89436.1158 -73515.4378 297.5825 -140.5536 -106.7711 261208.0433 -141.4500 -141.4360
TCL: namdcph) Proposal rejected.
TCL: Running for 500 steps without repeating first step
TCL: namdcph) Proposal rejected.
TCL: Running for 500 steps without repeating first step
ETITLE: TS BOND ANGLE DIHED IMPRP ELECT VDW BOUNDARY MISC KINETIC TOTAL TEMP POTENTIAL TOTAL3 TEMPAVG PRESSURE GPRESSURE VOLUME PRESSAVG GPRESSAVG
ENERGY: 20000 163.2648 478.7973 476.4826 36.8200 -99173.3673 8462.0053 0.0000 0.0000 15783.4994 -73772.4979 296.8038 -89555.9973 -73736.5555 297.5779 -208.7312 -179.5760 261208.0433 -113.3214 -113.3169
TCL: namdcph) Proposal rejected.
TCL: Running for 500 steps without repeating first step
TCL: namdcph) Proposal rejected.
TCL: Running for 500 steps without repeating first step
ETITLE: TS BOND ANGLE DIHED IMPRP ELECT VDW BOUNDARY MISC KINETIC TOTAL TEMP POTENTIAL TOTAL3 TEMPAVG PRESSURE GPRESSURE VOLUME PRESSAVG GPRESSAVG
ENERGY: 21000 170.0569 481.5833 471.6685 36.1676 -99229.2737 8777.5556 0.0000 0.0000 15650.6146 -73641.6272 294.3049 -89292.2418 -73606.0199 296.9862 87.5677 115.7743 261208.0433 -134.0669 -134.1399
TCL: namdcph) Proposal rejected.
TCL: Running for 500 steps without repeating first step
TCL: namdcph) Proposal rejected.
TCL: Running for 500 steps without repeating first step
ETITLE: TS BOND ANGLE DIHED IMPRP ELECT VDW BOUNDARY MISC KINETIC TOTAL TEMP POTENTIAL TOTAL3 TEMPAVG PRESSURE GPRESSURE VOLUME PRESSAVG GPRESSAVG
ENERGY: 22000 160.1248 474.3486 486.1920 31.1578 -99186.4226 8530.9992 0.0000 0.0000 15905.5697 -73598.0306 299.0993 -89503.6003 -73564.9470 297.2993 -178.4542 -137.2739 261208.0433 -132.6590 -132.5979
TCL: namdcph) Proposal rejected.
TCL: Running for 500 steps without repeating first step
TCL: namdcph) Proposal rejected.
TCL: Running for 500 steps without repeating first step
ETITLE: TS BOND ANGLE DIHED IMPRP ELECT VDW BOUNDARY MISC KINETIC TOTAL TEMP POTENTIAL TOTAL3 TEMPAVG PRESSURE GPRESSURE VOLUME PRESSAVG GPRESSAVG
ENERGY: 23000 168.2231 514.3608 481.0781 30.1217 -98978.0799 8365.0176 0.0000 0.0000 15760.4030 -73658.8755 296.3695 -89419.2785 -73620.5335 297.9716 -394.5146 -355.0419 261208.0433 -93.5353 -93.5448
TCL: namdcph) Proposal rejected.
TCL: Running for 500 steps without repeating first step
TCL: namdcph) Proposal rejected.
TCL: Running for 500 steps without repeating first step
ETITLE: TS BOND ANGLE DIHED IMPRP ELECT VDW BOUNDARY MISC KINETIC TOTAL TEMP POTENTIAL TOTAL3 TEMPAVG PRESSURE GPRESSURE VOLUME PRESSAVG GPRESSAVG
ENERGY: 24000 160.7596 485.3494 492.9390 32.7874 -99365.1652 8675.0513 0.0000 0.0000 15885.8840 -73632.3945 298.7291 -89518.2785 -73588.4829 297.6036 -104.3574 -67.9557 261208.0433 -181.3115 -181.2869
TCL: namdcph) Proposal rejected.
TCL: Running for 500 steps without repeating first step
TCL: namdcph) Proposal rejected.
TCL: Running for 500 steps without repeating first step
ETITLE: TS BOND ANGLE DIHED IMPRP ELECT VDW BOUNDARY MISC KINETIC TOTAL TEMP POTENTIAL TOTAL3 TEMPAVG PRESSURE GPRESSURE VOLUME PRESSAVG GPRESSAVG
ENERGY: 25000 176.4356 511.1185 479.7062 35.2135 -99448.1992 8750.7206 0.0000 0.0000 15781.8780 -73713.1269 296.7733 -89495.0048 -73676.8484 297.3210 -93.2582 -53.3730 261208.0433 -183.1582 -183.1960
TCL: namdcph) Proposal rejected.
TCL: Running for 500 steps without repeating first step
TCL: namdcph) Proposal rejected.
TCL: Running for 500 steps without repeating first step
ETITLE: TS BOND ANGLE DIHED IMPRP ELECT VDW BOUNDARY MISC KINETIC TOTAL TEMP POTENTIAL TOTAL3 TEMPAVG PRESSURE GPRESSURE VOLUME PRESSAVG GPRESSAVG
ENERGY: 26000 162.4480 453.5682 474.2787 26.6619 -98965.1771 8393.1999 0.0000 0.0000 15861.5064 -73593.5140 298.2707 -89455.0204 -73554.6930 297.5905 -383.8439 -346.7049 261208.0433 -137.3257 -137.3211
TCL: namdcph) Proposal rejected.
TCL: Running for 500 steps without repeating first step
TCL: namdcph) Proposal rejected.
TCL: Running for 500 steps without repeating first step
ETITLE: TS BOND ANGLE DIHED IMPRP ELECT VDW BOUNDARY MISC KINETIC TOTAL TEMP POTENTIAL TOTAL3 TEMPAVG PRESSURE GPRESSURE VOLUME PRESSAVG GPRESSAVG
ENERGY: 27000 187.6268 491.6539 486.2322 35.0560 -99394.6034 8719.4870 0.0000 0.0000 15963.9301 -73510.6174 300.1967 -89474.5475 -73474.2434 298.4848 -132.3260 -98.1819 261208.0433 -83.0511 -83.0992
TCL: namdcph) Proposal rejected.
TCL: Running for 500 steps without repeating first step
TCL: namdcph) Proposal rejected.
TCL: Running for 500 steps without repeating first step
ETITLE: TS BOND ANGLE DIHED IMPRP ELECT VDW BOUNDARY MISC KINETIC TOTAL TEMP POTENTIAL TOTAL3 TEMPAVG PRESSURE GPRESSURE VOLUME PRESSAVG GPRESSAVG
ENERGY: 28000 155.3792 494.7353 471.7543 26.1067 -98859.0357 8411.7933 0.0000 0.0000 15880.1262 -73419.1408 298.6208 -89299.2670 -73383.1867 299.2744 -154.2267 -119.3168 261208.0433 -111.2716 -111.2930
TCL: namdcph) Proposal rejected.
TCL: Running for 500 steps without repeating first step
TCL: namdcph) Proposal rejected.
TCL: Running for 500 steps without repeating first step
ETITLE: TS BOND ANGLE DIHED IMPRP ELECT VDW BOUNDARY MISC KINETIC TOTAL TEMP POTENTIAL TOTAL3 TEMPAVG PRESSURE GPRESSURE VOLUME PRESSAVG GPRESSAVG
ENERGY: 29000 157.5507 502.6519 463.9143 27.7885 -98738.7842 8440.4944 0.0000 0.0000 15747.3195 -73399.0649 296.1235 -89146.3844 -73362.9974 298.6020 -253.5917 -214.1952 261208.0433 -77.8355 -77.8226
TCL: namdcph) Proposal rejected.
TCL: Running for 500 steps without repeating first step
TCL: namdcph) Proposal rejected.
TCL: Running for 500 steps without repeating first step
ETITLE: TS BOND ANGLE DIHED IMPRP ELECT VDW BOUNDARY MISC KINETIC TOTAL TEMP POTENTIAL TOTAL3 TEMPAVG PRESSURE GPRESSURE VOLUME PRESSAVG GPRESSAVG
ENERGY: 30000 170.1164 467.1524 492.3322 30.2482 -98958.8462 8650.5720 0.0000 0.0000 15963.6784 -73184.7466 300.1920 -89148.4249 -73146.0047 300.1773 -16.5305 15.2070 261208.0433 -62.5759 -62.5488
TCL: namdcph) Proposal rejected.
TCL: Running for 500 steps without repeating first step
TCL: namdcph) Proposal rejected.
TCL: Running for 500 steps without repeating first step
ETITLE: TS BOND ANGLE DIHED IMPRP ELECT VDW BOUNDARY MISC KINETIC TOTAL TEMP POTENTIAL TOTAL3 TEMPAVG PRESSURE GPRESSURE VOLUME PRESSAVG GPRESSAVG
ENERGY: 31000 162.1897 495.4838 478.8538 36.5692 -99385.2354 8846.2162 0.0000 0.0000 15937.7413 -73428.1814 299.7043 -89365.9227 -73387.8625 299.6673 117.8311 147.5450 261208.0433 -141.8206 -141.8383
TCL: namdcph) Proposal rejected.
TCL: Running for 500 steps without repeating first step
TCL: namdcph) Proposal rejected.
TCL: Running for 500 steps without repeating first step
ETITLE: TS BOND ANGLE DIHED IMPRP ELECT VDW BOUNDARY MISC KINETIC TOTAL TEMP POTENTIAL TOTAL3 TEMPAVG PRESSURE GPRESSURE VOLUME PRESSAVG GPRESSAVG
ENERGY: 32000 182.4280 497.4039 475.0239 26.6167 -99184.7606 8534.6699 0.0000 0.0000 16062.0453 -73406.5729 302.0418 -89468.6182 -73368.0230 299.5480 -193.6231 -163.4464 261208.0433 -104.4050 -104.5634
TCL: namdcph) Proposal rejected.
TCL: Running for 500 steps without repeating first step
TCL: namdcph) Proposal rejected.
TCL: Running for 500 steps without repeating first step
ETITLE: TS BOND ANGLE DIHED IMPRP ELECT VDW BOUNDARY MISC KINETIC TOTAL TEMP POTENTIAL TOTAL3 TEMPAVG PRESSURE GPRESSURE VOLUME PRESSAVG GPRESSAVG
ENERGY: 33000 158.6181 488.5166 475.6331 29.3549 -99042.2173 8657.7625 0.0000 0.0000 15850.1838 -73382.1482 298.0578 -89232.3320 -73342.5649 298.2194 2.4175 35.6900 261208.0433 -146.3670 -146.3196
TCL: namdcph) Proposal rejected.
TCL: Running for 500 steps without repeating first step
TCL: namdcph) Proposal rejected.
TCL: Running for 500 steps without repeating first step
ETITLE: TS BOND ANGLE DIHED IMPRP ELECT VDW BOUNDARY MISC KINETIC TOTAL TEMP POTENTIAL TOTAL3 TEMPAVG PRESSURE GPRESSURE VOLUME PRESSAVG GPRESSAVG
ENERGY: 34000 150.5067 497.3686 495.5028 32.7087 -99097.4201 8521.0803 0.0000 0.0000 15805.9074 -73594.3456 297.2252 -89400.2530 -73555.1451 299.0103 -149.1581 -116.0743 261208.0433 -89.7679 -89.7467
TCL: namdcph) Proposal rejected.
TCL: Running for 500 steps without repeating first step
TCL: namdcph) Proposal rejected.
TCL: Running for 500 steps without repeating first step
ETITLE: TS BOND ANGLE DIHED IMPRP ELECT VDW BOUNDARY MISC KINETIC TOTAL TEMP POTENTIAL TOTAL3 TEMPAVG PRESSURE GPRESSURE VOLUME PRESSAVG GPRESSAVG
ENERGY: 35000 162.6693 457.0738 478.5860 37.4662 -99191.7425 8635.2868 0.0000 0.0000 15930.5755 -73490.0848 299.5695 -89420.6603 -73450.8929 298.4995 -103.6117 -66.3205 261208.0433 -67.2845 -67.1945
TCL: namdcph) Proposal rejected.
TCL: Running for 500 steps without repeating first step
TCL: namdcph) Proposal rejected.
TCL: Running for 500 steps without repeating first step
ETITLE: TS BOND ANGLE DIHED IMPRP ELECT VDW BOUNDARY MISC KINETIC TOTAL TEMP POTENTIAL TOTAL3 TEMPAVG PRESSURE GPRESSURE VOLUME PRESSAVG GPRESSAVG
ENERGY: 36000 160.1235 480.3530 488.1796 28.9902 -98878.5924 8334.4350 0.0000 0.0000 15772.2236 -73614.2875 296.5918 -89386.5111 -73577.0348 297.8462 -372.3494 -334.1445 261208.0433 -74.3049 -74.3043
TCL: namdcph) Proposal rejected.
TCL: Running for 500 steps without repeating first step
TCL: namdcph) Proposal rejected.
TCL: Running for 500 steps without repeating first step
ETITLE: TS BOND ANGLE DIHED IMPRP ELECT VDW BOUNDARY MISC KINETIC TOTAL TEMP POTENTIAL TOTAL3 TEMPAVG PRESSURE GPRESSURE VOLUME PRESSAVG GPRESSAVG
ENERGY: 37000 156.1550 479.0160 490.2747 36.9134 -99317.0040 8704.4185 0.0000 0.0000 15977.6356 -73472.5908 300.4545 -89450.2263 -73434.2654 298.0642 17.6687 50.0737 261208.0433 -113.1762 -113.0595
TCL: namdcph) Proposal rejected.
TCL: Running for 500 steps without repeating first step
TCL: namdcph) Proposal rejected.
TCL: Running for 500 steps without repeating first step
ETITLE: TS BOND ANGLE DIHED IMPRP ELECT VDW BOUNDARY MISC KINETIC TOTAL TEMP POTENTIAL TOTAL3 TEMPAVG PRESSURE GPRESSURE VOLUME PRESSAVG GPRESSAVG
ENERGY: 38000 149.6702 499.7907 478.5218 31.3752 -99231.8841 8712.0029 0.0000 0.0000 15795.3372 -73565.1862 297.0264 -89360.5234 -73526.5049 298.4023 60.1667 96.4053 261208.0433 -62.0953 -61.9613
TCL: namdcph) Proposal rejected.
TCL: Running for 500 steps without repeating first step
TCL: namdcph) Proposal rejected.
TCL: Running for 500 steps without repeating first step
