Info: SIMULATION PARAMETERS:
Info: TIMESTEP               2
Info: NUMBER OF STEPS        0
Info: STEPS PER CYCLE        20
Info: PERIODIC CELL BASIS 1  44.2205 0 0
Info: PERIODIC CELL BASIS 2  0 56.6757 0
Info: PERIODIC CELL BASIS 3  0 0 104.224
Info: PERIODIC CELL CENTER   0.147329 1.06646 2.8626
Info: WRAPPING WATERS AROUND PERIODIC BOUNDARIES ON OUTPUT.
Info: WRAPPING ALL CLUSTERS AROUND PERIODIC BOUNDARIES ON OUTPUT.
Info: FIRST LDB TIMESTEP     100
Info: LAST LDB TIMESTEP     -1
Info: HOM BACKGROUND SCALING 1
Info: PME BACKGROUND SCALING 1
Info: MIN ATOMS PER PATCH    40
Info: INITIAL TEMPERATURE    298
Info: CENTER OF MASS MOVING INITIALLY? NO
Info: DIELECTRIC             1
Info: EXCLUDE                SCALED ONE-FOUR
Info: 1-4 ELECTROSTATICS SCALED BY 1
Info: MODIFIED 1-4 VDW PARAMETERS WILL BE USED
Info: DCD FILENAME           4/Pre4_0.dcd
Info: DCD FREQUENCY          1000
Info: DCD FIRST STEP         1000
Info: DCD FILE WILL CONTAIN UNIT CELL DATA
Info: NO EXTENDED SYSTEM TRAJECTORY OUTPUT
Info: NO VELOCITY DCD OUTPUT
Info: NO FORCE DCD OUTPUT
Info: OUTPUT FILENAME        4/Pre4_0
Info: BINARY OUTPUT FILES WILL BE USED
Info: NO RESTART FILE
Info: SWITCHING ACTIVE
Info: VDW FORCE SWITCHING ACTIVE
Info: SWITCHING ON           10
Info: SWITCHING OFF          12
Info: PAIRLIST DISTANCE      14
Info: PAIRLIST SHRINK RATE   0.01
Info: PAIRLIST GROW RATE     0.01
Info: PAIRLIST TRIGGER       0.3
Info: PAIRLISTS PER CYCLE    2
Info: PAIRLISTS ENABLED
Info: MARGIN                 2
Info: HYDROGEN GROUP CUTOFF  2.5
Info: PATCH DIMENSION        18.5
Info: ENERGY OUTPUT STEPS    1000
Info: CROSSTERM ENERGY INCLUDED IN DIHEDRAL
Info: TIMING OUTPUT STEPS    10000
Info: THERMODYNAMIC INTEGRATION (TI) ON
Info: TI LAMBDA VALUE     0
Info: TI INTRA-ALCHEMICAL NON-BONDED INTERACTIONS WILL BE DECOUPLED
Info: TI INTRA-ALCHEMICAL BONDED INTERACTIONS WILL BE DECOUPLED
Info: TI VDW SHIFTING COEFFICIENT 0
Info: TI ELEC. ACTIVE FOR ANNIHILATED PARTICLES BETWEEN LAMBDA = 0 AND LAMBDA = 1
Info: TI ELEC. ACTIVE FOR EXNIHILATED PARTICLES BETWEEN LAMBDA = 0 AND LAMBDA = 1
Info: TI VDW ACTIVE FOR ANNIHILATED PARTICLES BETWEEN LAMBDA = 0 AND LAMBDA = 1
Info: TI VDW ACTIVE FOR EXNIHILATED PARTICLES BETWEEN LAMBDA = 0 AND LAMBDA = 1
Info: TI BOND ACTIVE FOR ANNIHILATED PARTICLES BETWEEN LAMBDA = 0 AND LAMBDA = 1
Info: TI BOND ACTIVE FOR EXNIHILATED PARTICLES BETWEEN LAMBDA = 0 AND LAMBDA = 1
Info: LANGEVIN DYNAMICS ACTIVE
Info: LANGEVIN TEMPERATURE   298
Info: LANGEVIN USING BBK INTEGRATOR
Info: LANGEVIN DAMPING COEFFICIENT IS 1 INVERSE PS
Info: LANGEVIN DYNAMICS NOT APPLIED TO HYDROGENS
Info: PARTICLE MESH EWALD (PME) ACTIVE
Info: PME TOLERANCE               1e-06
Info: PME EWALD COEFFICIENT       0.257952
Info: PME INTERPOLATION ORDER     4
Info: PME GRID DIMENSIONS         48 60 108
Info: PME MAXIMUM GRID SPACING    1
Info: FULL ELECTROSTATIC EVALUATION FREQUENCY      2
Info: USING VERLET I (r-RESPA) MTS SCHEME.
Info: C1 SPLITTING OF LONG RANGE ELECTROSTATICS
Info: PLACING ATOMS IN PATCHES BY HYDROGEN GROUPS
Info: RIGID BONDS TO HYDROGEN : ALL
Info:         ERROR TOLERANCE : 1e-08
Info:          MAX ITERATIONS : 100
Info: RIGID WATER USING SETTLE ALGORITHM
Info: RANDOM NUMBER SEED     1688974222
Info: USE HYDROGEN BONDS?    NO
Info: COORDINATE PDB         ../topology/preD936Y.pdb
Info: STRUCTURE FILE         ../topology/preD936Y.psf
Info: PARAMETER file: CHARMM format!
Info: PARAMETERS             ../../toppar/par_all36_carb.prm
Info: PARAMETERS             ../../toppar/par_all36_cgenff.prm
Info: PARAMETERS             ../../toppar/par_all36_lipid.prm
Info: PARAMETERS             ../../toppar/par_all36_na.prm
Info: PARAMETERS             ../../toppar/par_all36_prot.prm
Info: PARAMETERS             ../../toppar/par_all36_solvent.prm
Info: PARAMETERS             ../../toppar/par_cph36_prot.prm
Info: PARAMETERS             ../../toppar/toppar_all36_carb_glycopeptide.str
Info: PARAMETERS             ../../toppar/toppar_water_ions_namd.str
Info: USING ARITHMETIC MEAN TO COMBINE L-J SIGMA PARAMETERS
Info: SKIPPING rtf SECTION IN STREAM FILE
Info: SKIPPING rtf SECTION IN STREAM FILE
Info: SUMMARY OF PARAMETERS:
Info: 925 BONDS
Info: 2696 ANGLES
Info: 6608 DIHEDRAL
Info: 195 IMPROPER
Info: 6 CROSSTERM
Info: 366 VDW
Info: 6 VDW_PAIRS
Info: 0 NBTHOLE_PAIRS
Info: READING EXTRA BONDS FILE 4/namdcph.sw.extrabonds
Info: To read alchdata from file: coordinate pdb file (default)
Info: To read alchflag data from column: 5
Info: LONG-RANGE LJ: APPLYING ANALYTICAL CORRECTIONS TO ENERGY AND PRESSURE
Info: LONG-RANGE LJ: AVERAGE A0 AND B0 COEFFICIENTS 70903.5 AND 74.5485
Info: LONG-RANGE LJ: AVERAGE A1 AND B1 COEFFICIENTS 70903.5 AND 74.5485
Info: STRUCTURE SUMMARY:
Info: 26518 ATOMS
Info: 17936 BONDS
Info: 10102 ANGLES
Info: 2276 DIHEDRALS
Info: 173 IMPROPERS
Info: 54 CROSSTERMS
Info: 0 EXCLUSIONS
Info: 26041 RIGID BONDS
Info: ALCH: 0 ATOMS TO DISAPPEAR IN FINAL STATE
Info: ALCH: 0 ATOMS TO APPEAR IN FINAL STATE
Info: 53513 DEGREES OF FREEDOM
Info: 9011 HYDROGEN GROUPS
Info: 4 ATOMS IN LARGEST HYDROGEN GROUP
Info: 9011 MIGRATION GROUPS
Info: 4 ATOMS IN LARGEST MIGRATION GROUP
Info: TOTAL MASS = 161285 amu
Info: TOTAL CHARGE = 4.20958e-07 e
Info: MASS DENSITY = 1.02534 g/cm^3
Info: ATOM DENSITY = 0.101521 atoms/A^3
Info: ADDED 30305 IMPLICIT EXCLUSIONS
Info: NONBONDED TABLE R-SQUARED SPACING: 0.0625
Info: NONBONDED TABLE SIZE: 769 POINTS
Info: REMOVING COM VELOCITY -0.0267208 -0.00377996 -0.0671668
TCL: Setting parameter alchLambdaFreq to 1
Info: NONBONDED TABLE R-SQUARED SPACING: 0.0625
Info: NONBONDED TABLE SIZE: 769 POINTS
TCL: Setting parameter alch to off
Info: NONBONDED TABLE R-SQUARED SPACING: 0.0625
Info: NONBONDED TABLE SIZE: 769 POINTS
TCL: namdcph) initializing constant pH PSF...
TCL: WARNING! Building new atom PP1:918:HE1 with unknown mass.
TCL:          This may cause issues, for example, with mass repartitioning.
TCL: WARNING! Building new atom PP1:918:HE2 with unknown mass.
TCL:          This may cause issues, for example, with mass repartitioning.
TCL: WARNING! Building new atom PP1:950:HD1 with unknown mass.
TCL:          This may cause issues, for example, with mass repartitioning.
TCL: WARNING! Building new atom PP1:950:HD2 with unknown mass.
TCL:          This may cause issues, for example, with mass repartitioning.
TCL: cphpsfgen) creating new alchemical side chain for PP1:918:GLU
TCL: cphpsfgen) merging alchemical sidechains for PP1:918:GLU
TCL: cphpsfgen) creating new alchemical side chain for PP1:921:LYS
TCL: cphpsfgen) merging alchemical sidechains for PP1:921:LYS
TCL: cphpsfgen) creating new alchemical side chain for PP1:933:LYS
TCL: cphpsfgen) merging alchemical sidechains for PP1:933:LYS
TCL: cphpsfgen) creating new alchemical side chain for PP1:947:LYS
TCL: cphpsfgen) merging alchemical sidechains for PP1:947:LYS
TCL: cphpsfgen) creating new alchemical side chain for PP1:950:ASP
TCL: cphpsfgen) merging alchemical sidechains for PP1:950:ASP
TCL: cphpsfgen) creating new alchemical side chain for PP1:964:LYS
TCL: cphpsfgen) merging alchemical sidechains for PP1:964:LYS
TCL: namdcph) ***************************************
TCL: namdcph) CONSTANT pH MD ACTIVE
TCL: namdcph) SYSTEM pH 4
TCL: namdcph) CONSTANT pH CONFIGURATION FILE(S)
TCL: namdcph) ../../toppar/conf_cph36_prot.json
TCL: namdcph) NONEQUILIBRIUM SWITCH PARAMETERS:
TCL: namdcph) ALCHEMICAL FORCE CONSTANT 100.0 kcal/mol-A^2
TCL: namdcph) neMD/MC CRITERION TEMPERATURE 298.0
TCL: namdcph) TEMPORARY FILE INFORMATION:
TCL: namdcph) cpH TOPOLOGY FILE BASENAME 4/namdcph.md
TCL: namdcph) neMD/MC TRAJECTORY BASENAME 4/namdcph.sw
TCL: namdcph) ***************************************
TCL: namdcph) ***************************************
TCL: namdcph) TITRATABLE RESIDUE DEFINITIONS:
TCL: namdcph) HIS ASP GLU CYS LYS
TCL: namdcph) TITRATABLE SYSTEM SUMMARY:
TCL: namdcph) 6 RESIDUE(S)
TCL: namdcph) 16 PROTONATION SITE(S)
TCL: namdcph) ***************************************
TCL: namdcph) segid:resid:resname : state : pKai
TCL: namdcph) PP1:918:GLU         :     2 : 5.90
TCL: namdcph) PP1:921:LYS         :     P : 9.77
TCL: namdcph) PP1:933:LYS         :     P : 9.53
TCL: namdcph) PP1:947:LYS         :     P : 9.82
TCL: namdcph) PP1:950:ASP         :     1 : 5.51
TCL: namdcph) PP1:964:LYS         :     P : 9.68
TCL: namdcph) ***************************************
TCL: namdcph) *************************************************
TCL: namdcph) CONSTANT pH neMD/MC MOVES:
TCL: namdcph) MAX. ATTEMPTS PER CYCLE: 1
TCL: namdcph) ONE RESIDUE MOVES
TCL: namdcph) move label     : numsteps   weight
TCL: namdcph) PP1:918:GLU    :    75000     1.00
TCL: namdcph) PP1:921:LYS    :    75000     1.00
TCL: namdcph) PP1:933:LYS    :    75000     1.00
TCL: namdcph) PP1:947:LYS    :    75000     1.00
TCL: namdcph) PP1:950:ASP    :    75000     1.00
TCL: namdcph) PP1:964:LYS    :    75000     1.00
TCL: namdcph) *************************************************
TCL: namdcph) clearing extraBondsFile 4/namdcph.sw.extrabonds
TCL: Reloading molecular structure from file 4/namdcph.md.psf and pdb file 4/namdcph.md.pdb
Info: READING EXTRA BONDS FILE 4/namdcph.sw.extrabonds
Info: LONG-RANGE LJ: APPLYING ANALYTICAL CORRECTIONS TO ENERGY AND PRESSURE
Info: LONG-RANGE LJ: AVERAGE A AND B COEFFICIENTS 70902 AND 74.5446
Info: STRUCTURE SUMMARY:
Info: 26522 ATOMS
Info: 17940 BONDS
Info: 10106 ANGLES
Info: 2284 DIHEDRALS
Info: 173 IMPROPERS
Info: 54 CROSSTERMS
Info: 0 EXCLUSIONS
Info: 26045 RIGID BONDS
Info: 53521 DEGREES OF FREEDOM
Info: 9011 HYDROGEN GROUPS
Info: 4 ATOMS IN LARGEST HYDROGEN GROUP
Info: 9011 MIGRATION GROUPS
Info: 4 ATOMS IN LARGEST MIGRATION GROUP
Info: TOTAL MASS = 161289 amu
Info: TOTAL CHARGE = 2 e
Info: MASS DENSITY = 1.02536 g/cm^3
Info: ATOM DENSITY = 0.101536 atoms/A^3
Info: ADDED 30321 IMPLICIT EXCLUSIONS
Info: NONBONDED TABLE R-SQUARED SPACING: 0.0625
Info: NONBONDED TABLE SIZE: 769 POINTS
TCL: Reinitializing atom data from files with basename 4/namdcph.md
Info: REMOVING COM VELOCITY -0.000953805 -0.00284711 0.00282377
TCL: Minimizing for 300 steps
ETITLE: TS BOND ANGLE DIHED IMPRP ELECT VDW BOUNDARY MISC KINETIC TOTAL TEMP POTENTIAL TOTAL3 TEMPAVG PRESSURE GPRESSURE VOLUME PRESSAVG GPRESSAVG
ENERGY: 0 63.6001 105.0127 440.8828 0.5654 -84312.8050 99999999999.9999 0.0000 0.0000 0.0000 99999999999.9999 0.0000 99999999999.9999 99999999999.9999 0.0000 99999999999.9999 99999999999.9999 261208.0433 99999999999.9999 99999999999.9999
ENERGY: 60 309.9937 163.6500 433.7305 9.7942 -98410.9122 11531.7884 0.0000 0.0000 0.0000 -85961.9554 0.0000 -85961.9554 -85961.9554 0.0000 22978.3852 3586.5067 261208.0433 22978.3852 3586.5067
ENERGY: 120 65.7227 170.1216 430.0061 6.7101 -102981.8950 9633.9526 0.0000 0.0000 0.0000 -92675.3819 0.0000 -92675.3819 -92675.3819 0.0000 20796.8708 454.0843 261208.0433 20796.8708 454.0843
ENERGY: 180 50.1217 205.4133 425.8947 9.8378 -105775.2889 9101.7248 0.0000 0.0000 0.0000 -95982.2965 0.0000 -95982.2965 -95982.2965 0.0000 19836.7148 -1088.2990 261208.0433 19836.7148 -1088.2990
ENERGY: 240 97.5435 199.6155 426.5795 10.2551 -106810.2439 9027.5730 0.0000 0.0000 0.0000 -97048.6773 0.0000 -97048.6773 -97048.6773 0.0000 19685.9334 19643.4663 261208.0433 19685.9334 19643.4663
ENERGY: 300 141.9223 222.5788 425.3950 8.8866 -108313.2699 9054.1905 0.0000 0.0000 0.0000 -98460.2965 0.0000 -98460.2965 -98460.2965 0.0000 19602.2688 19489.2090 261208.0433 19602.2688 19489.2090
TCL: Setting parameter firstTimeStep to 0
TCL: Running for 500 steps
ETITLE: TS BOND ANGLE DIHED IMPRP ELECT VDW BOUNDARY MISC KINETIC TOTAL TEMP POTENTIAL TOTAL3 TEMPAVG PRESSURE GPRESSURE VOLUME PRESSAVG GPRESSAVG
ENERGY: 0 141.9223 222.5788 425.3950 8.8866 -108313.2699 9054.1905 0.0000 0.0000 15839.1236 -82621.1729 297.8498 -98460.2965 -82645.4351 297.8498 -2677.1656 -2607.2003 261208.0433 -2677.1656 -2607.2003
TCL: namdcph) Proposal rejected.
TCL: Running for 500 steps without repeating first step
ETITLE: TS BOND ANGLE DIHED IMPRP ELECT VDW BOUNDARY MISC KINETIC TOTAL TEMP POTENTIAL TOTAL3 TEMPAVG PRESSURE GPRESSURE VOLUME PRESSAVG GPRESSAVG
ENERGY: 1000 144.3389 455.4443 493.8914 36.0031 -103484.0605 9451.6450 0.0000 0.0000 13948.1471 -78954.5907 262.2906 -92902.7378 -78923.4953 244.9459 -670.2455 -638.3802 261208.0433 -409.4616 -409.5383
TCL: namdcph) Proposal rejected.
TCL: Running for 500 steps without repeating first step
TCL: namdcph) Proposal rejected.
TCL: Running for 500 steps without repeating first step
ETITLE: TS BOND ANGLE DIHED IMPRP ELECT VDW BOUNDARY MISC KINETIC TOTAL TEMP POTENTIAL TOTAL3 TEMPAVG PRESSURE GPRESSURE VOLUME PRESSAVG GPRESSAVG
ENERGY: 2000 143.5601 508.3347 488.0812 31.9276 -101704.1949 9137.7186 0.0000 0.0000 14703.1509 -76691.4217 276.4882 -91394.5726 -76660.8843 270.9803 -296.4621 -263.0952 261208.0433 -438.4473 -438.4541
TCL: namdcph) Proposal rejected.
TCL: Running for 500 steps without repeating first step
TCL: namdcph) Proposal rejected.
TCL: Running for 500 steps without repeating first step
ETITLE: TS BOND ANGLE DIHED IMPRP ELECT VDW BOUNDARY MISC KINETIC TOTAL TEMP POTENTIAL TOTAL3 TEMPAVG PRESSURE GPRESSURE VOLUME PRESSAVG GPRESSAVG
ENERGY: 3000 162.9632 505.0799 471.7296 31.4577 -100678.0583 8911.2236 0.0000 0.0000 15362.5591 -75233.0452 288.8882 -90595.6043 -75195.1770 283.6674 -255.4948 -218.8587 261208.0433 -287.1322 -287.1088
TCL: namdcph) Proposal rejected.
TCL: Running for 500 steps without repeating first step
TCL: namdcph) Proposal rejected.
TCL: Running for 500 steps without repeating first step
ETITLE: TS BOND ANGLE DIHED IMPRP ELECT VDW BOUNDARY MISC KINETIC TOTAL TEMP POTENTIAL TOTAL3 TEMPAVG PRESSURE GPRESSURE VOLUME PRESSAVG GPRESSAVG
ENERGY: 4000 176.2960 489.7573 472.9982 29.5469 -99975.7434 8730.6784 0.0000 0.0000 15551.9906 -74524.4762 292.4504 -90076.4667 -74497.4936 289.6442 -254.6431 -222.4637 261208.0433 -251.1154 -251.0206
TCL: namdcph) Proposal rejected.
TCL: Running for 500 steps without repeating first step
TCL: namdcph) Proposal rejected.
TCL: Running for 500 steps without repeating first step
ETITLE: TS BOND ANGLE DIHED IMPRP ELECT VDW BOUNDARY MISC KINETIC TOTAL TEMP POTENTIAL TOTAL3 TEMPAVG PRESSURE GPRESSURE VOLUME PRESSAVG GPRESSAVG
ENERGY: 5000 179.5335 502.5844 464.3387 32.0260 -99478.8354 8466.3170 0.0000 0.0000 15578.3339 -74255.7019 292.9457 -89834.0358 -74221.6013 293.9242 -455.9412 -416.2604 261208.0433 -143.8013 -143.8788
TCL: namdcph) Proposal rejected.
TCL: Running for 500 steps without repeating first step
TCL: namdcph) Proposal rejected.
TCL: Running for 500 steps without repeating first step
ETITLE: TS BOND ANGLE DIHED IMPRP ELECT VDW BOUNDARY MISC KINETIC TOTAL TEMP POTENTIAL TOTAL3 TEMPAVG PRESSURE GPRESSURE VOLUME PRESSAVG GPRESSAVG
ENERGY: 6000 162.8527 476.4696 478.4510 36.2502 -99549.9715 8686.6889 0.0000 0.0000 15687.3712 -74021.8879 294.9961 -89709.2591 -73985.6447 294.4673 -186.8094 -156.8130 261208.0433 -159.5221 -159.5610
TCL: namdcph) Proposal rejected.
TCL: Running for 500 steps without repeating first step
TCL: namdcph) Proposal rejected.
TCL: Running for 500 steps without repeating first step
ETITLE: TS BOND ANGLE DIHED IMPRP ELECT VDW BOUNDARY MISC KINETIC TOTAL TEMP POTENTIAL TOTAL3 TEMPAVG PRESSURE GPRESSURE VOLUME PRESSAVG GPRESSAVG
ENERGY: 7000 173.4602 476.0267 480.0428 33.1162 -99001.2267 8333.6632 0.0000 0.0000 15733.9474 -73770.9701 295.8720 -89504.9176 -73735.4149 296.2164 -317.2174 -283.2701 261208.0433 -154.4627 -154.4847
TCL: namdcph) Proposal rejected.
TCL: Running for 500 steps without repeating first step
TCL: namdcph) Proposal rejected.
TCL: Running for 500 steps without repeating first step
ETITLE: TS BOND ANGLE DIHED IMPRP ELECT VDW BOUNDARY MISC KINETIC TOTAL TEMP POTENTIAL TOTAL3 TEMPAVG PRESSURE GPRESSURE VOLUME PRESSAVG GPRESSAVG
ENERGY: 8000 162.1390 494.4058 470.0804 30.9465 -99236.6295 8594.3891 0.0000 0.0000 15776.8629 -73707.8059 296.6790 -89484.6687 -73667.9310 296.9597 -179.0227 -142.0853 261208.0433 -109.4458 -109.4298
TCL: namdcph) Proposal rejected.
TCL: Running for 500 steps without repeating first step
TCL: namdcph) Proposal rejected.
TCL: Running for 500 steps without repeating first step
ETITLE: TS BOND ANGLE DIHED IMPRP ELECT VDW BOUNDARY MISC KINETIC TOTAL TEMP POTENTIAL TOTAL3 TEMPAVG PRESSURE GPRESSURE VOLUME PRESSAVG GPRESSAVG
ENERGY: 9000 161.0423 487.7932 473.0136 33.0575 -99648.2358 8943.5896 0.0000 0.0000 15816.6756 -73733.0640 297.4277 -89549.7396 -73694.6159 297.5467 210.4190 243.3144 261208.0433 -131.9107 -132.0358
TCL: namdcph) Proposal rejected.
TCL: Running for 500 steps without repeating first step
TCL: namdcph) Proposal rejected.
TCL: Running for 500 steps without repeating first step
ETITLE: TS BOND ANGLE DIHED IMPRP ELECT VDW BOUNDARY MISC KINETIC TOTAL TEMP POTENTIAL TOTAL3 TEMPAVG PRESSURE GPRESSURE VOLUME PRESSAVG GPRESSAVG
ENERGY: 10000 187.5729 472.2119 479.0423 27.1353 -99853.8293 8941.0899 0.0000 0.0000 15648.0575 -74098.7194 294.2569 -89746.7769 -74063.5780 295.7835 85.5642 115.3340 261208.0433 -123.6509 -123.5306
TCL: namdcph) Proposal rejected.
TCL: Running for 500 steps without repeating first step
TCL: namdcph) Proposal rejected.
TCL: Running for 500 steps without repeating first step
ETITLE: TS BOND ANGLE DIHED IMPRP ELECT VDW BOUNDARY MISC KINETIC TOTAL TEMP POTENTIAL TOTAL3 TEMPAVG PRESSURE GPRESSURE VOLUME PRESSAVG GPRESSAVG
ENERGY: 11000 153.4161 455.9115 481.9651 27.8827 -99391.5100 8629.1706 0.0000 0.0000 15643.5704 -73999.5937 294.1725 -89643.1640 -73959.1269 295.0279 -138.6003 -101.2543 261208.0433 -98.7219 -98.7169
TCL: namdcph) Proposal rejected.
TCL: Running for 500 steps without repeating first step
TCL: namdcph) Proposal rejected.
TCL: Running for 500 steps without repeating first step
ETITLE: TS BOND ANGLE DIHED IMPRP ELECT VDW BOUNDARY MISC KINETIC TOTAL TEMP POTENTIAL TOTAL3 TEMPAVG PRESSURE GPRESSURE VOLUME PRESSAVG GPRESSAVG
ENERGY: 12000 159.0294 493.6672 479.7962 39.0532 -99364.0215 8557.3997 0.0000 0.0000 15916.2305 -73718.8452 299.2998 -89635.0758 -73675.1464 296.4558 -170.4743 -136.5702 261208.0433 -114.7025 -114.7755
TCL: namdcph) Proposal rejected.
TCL: Running for 500 steps without repeating first step
TCL: namdcph) Proposal rejected.
TCL: Running for 500 steps without repeating first step
ETITLE: TS BOND ANGLE DIHED IMPRP ELECT VDW BOUNDARY MISC KINETIC TOTAL TEMP POTENTIAL TOTAL3 TEMPAVG PRESSURE GPRESSURE VOLUME PRESSAVG GPRESSAVG
ENERGY: 13000 155.1950 466.6857 460.4464 35.8070 -99092.1281 8482.0915 0.0000 0.0000 15763.1686 -73728.7339 296.4215 -89491.9025 -73692.0349 296.5865 -272.4749 -236.9933 261208.0433 -173.3292 -173.2109
TCL: namdcph) Proposal rejected.
TCL: Running for 500 steps without repeating first step
TCL: namdcph) Proposal rejected.
TCL: Running for 500 steps without repeating first step
ETITLE: TS BOND ANGLE DIHED IMPRP ELECT VDW BOUNDARY MISC KINETIC TOTAL TEMP POTENTIAL TOTAL3 TEMPAVG PRESSURE GPRESSURE VOLUME PRESSAVG GPRESSAVG
ENERGY: 14000 152.5262 515.8114 470.2588 38.0799 -99522.5572 8754.7973 0.0000 0.0000 15828.8089 -73762.2747 297.6558 -89591.0836 -73724.3852 296.7379 -3.1122 37.2458 261208.0433 -130.0266 -129.9444
TCL: namdcph) Proposal rejected.
TCL: Running for 500 steps without repeating first step
TCL: namdcph) Proposal rejected.
TCL: Running for 500 steps without repeating first step
ETITLE: TS BOND ANGLE DIHED IMPRP ELECT VDW BOUNDARY MISC KINETIC TOTAL TEMP POTENTIAL TOTAL3 TEMPAVG PRESSURE GPRESSURE VOLUME PRESSAVG GPRESSAVG
ENERGY: 15000 175.0018 472.2769 462.2402 28.8544 -99254.1961 8429.7339 0.0000 0.0000 15856.4598 -73829.6290 298.1758 -89686.0888 -73793.8098 297.1321 -399.9338 -370.9535 261208.0433 -117.6424 -117.6506
TCL: namdcph) Proposal rejected.
TCL: Running for 500 steps without repeating first step
TCL: namdcph) Proposal rejected.
TCL: Running for 500 steps without repeating first step
ETITLE: TS BOND ANGLE DIHED IMPRP ELECT VDW BOUNDARY MISC KINETIC TOTAL TEMP POTENTIAL TOTAL3 TEMPAVG PRESSURE GPRESSURE VOLUME PRESSAVG GPRESSAVG
ENERGY: 16000 178.5972 486.5903 463.5641 35.5701 -99628.1994 8835.5497 0.0000 0.0000 15952.4414 -73675.8865 299.9807 -89628.3280 -73641.3899 297.1023 11.4004 46.9604 261208.0433 -67.9911 -68.0171
TCL: namdcph) Proposal rejected.
TCL: Running for 500 steps without repeating first step
TCL: namdcph) Proposal rejected.
TCL: Running for 500 steps without repeating first step
ETITLE: TS BOND ANGLE DIHED IMPRP ELECT VDW BOUNDARY MISC KINETIC TOTAL TEMP POTENTIAL TOTAL3 TEMPAVG PRESSURE GPRESSURE VOLUME PRESSAVG GPRESSAVG
ENERGY: 17000 148.5761 492.8749 471.1731 38.3808 -99198.5970 8642.9540 0.0000 0.0000 15948.7958 -73455.8423 299.9122 -89404.6381 -73421.2682 297.9564 -106.6199 -64.6736 261208.0433 -109.2348 -109.2464
TCL: namdcph) Proposal rejected.
TCL: Running for 500 steps without repeating first step
TCL: namdcph) Proposal rejected.
TCL: Running for 500 steps without repeating first step
ETITLE: TS BOND ANGLE DIHED IMPRP ELECT VDW BOUNDARY MISC KINETIC TOTAL TEMP POTENTIAL TOTAL3 TEMPAVG PRESSURE GPRESSURE VOLUME PRESSAVG GPRESSAVG
ENERGY: 18000 171.2651 479.9507 467.7949 33.6479 -99161.0721 8679.6602 0.0000 0.0000 15778.4919 -73550.2614 296.7096 -89328.7533 -73511.0655 298.4155 -0.6881 30.3251 261208.0433 -45.4656 -45.5096
TCL: namdcph) Proposal rejected.
TCL: Running for 500 steps without repeating first step
TCL: namdcph) Proposal rejected.
TCL: Running for 500 steps without repeating first step
ETITLE: TS BOND ANGLE DIHED IMPRP ELECT VDW BOUNDARY MISC KINETIC TOTAL TEMP POTENTIAL TOTAL3 TEMPAVG PRESSURE GPRESSURE VOLUME PRESSAVG GPRESSAVG
ENERGY: 19000 165.0423 505.4874 460.5754 29.4506 -99321.2620 8864.0120 0.0000 0.0000 15757.4891 -73539.2053 296.3147 -89296.6944 -73500.6724 298.2254 242.3322 281.1469 261208.0433 -99.5869 -99.6278
TCL: namdcph) Proposal rejected.
TCL: Running for 500 steps without repeating first step
TCL: namdcph) Proposal rejected.
TCL: Running for 500 steps without repeating first step
ETITLE: TS BOND ANGLE DIHED IMPRP ELECT VDW BOUNDARY MISC KINETIC TOTAL TEMP POTENTIAL TOTAL3 TEMPAVG PRESSURE GPRESSURE VOLUME PRESSAVG GPRESSAVG
ENERGY: 20000 166.5210 466.9794 483.5010 23.3991 -99127.1536 8637.5893 0.0000 0.0000 15855.2379 -73493.9259 298.1528 -89349.1639 -73457.2966 298.2982 91.5489 123.3761 261208.0433 -39.1332 -39.1891
TCL: namdcph) Proposal rejected.
TCL: Running for 500 steps without repeating first step
TCL: namdcph) Proposal rejected.
TCL: Running for 500 steps without repeating first step
ETITLE: TS BOND ANGLE DIHED IMPRP ELECT VDW BOUNDARY MISC KINETIC TOTAL TEMP POTENTIAL TOTAL3 TEMPAVG PRESSURE GPRESSURE VOLUME PRESSAVG GPRESSAVG
ENERGY: 21000 188.4212 498.7826 456.8107 29.3664 -99416.9451 8640.0771 0.0000 0.0000 15898.4388 -73705.0482 298.9652 -89603.4870 -73668.9576 298.0821 -41.8745 -10.0450 261208.0433 -73.7814 -73.8609
TCL: namdcph) Proposal rejected.
TCL: Running for 500 steps without repeating first step
TCL: namdcph) Proposal rejected.
TCL: Running for 500 steps without repeating first step
ETITLE: TS BOND ANGLE DIHED IMPRP ELECT VDW BOUNDARY MISC KINETIC TOTAL TEMP POTENTIAL TOTAL3 TEMPAVG PRESSURE GPRESSURE VOLUME PRESSAVG GPRESSAVG
ENERGY: 22000 170.8049 484.8765 471.3481 28.1565 -99194.3695 8480.6722 0.0000 0.0000 15643.5158 -73914.9955 294.1715 -89558.5113 -73882.8169 295.7419 -334.0092 -299.2180 261208.0433 -193.8306 -193.7323
TCL: namdcph) Proposal rejected.
TCL: Running for 500 steps without repeating first step
TCL: namdcph) Proposal rejected.
TCL: Running for 500 steps without repeating first step
ETITLE: TS BOND ANGLE DIHED IMPRP ELECT VDW BOUNDARY MISC KINETIC TOTAL TEMP POTENTIAL TOTAL3 TEMPAVG PRESSURE GPRESSURE VOLUME PRESSAVG GPRESSAVG
ENERGY: 23000 152.8108 479.5312 463.9723 28.9686 -99366.5710 8658.6125 0.0000 0.0000 15850.0374 -73732.6382 298.0550 -89582.6756 -73693.8850 296.9245 -56.9460 -17.6994 261208.0433 -117.2306 -117.1834
TCL: namdcph) Proposal rejected.
TCL: Running for 500 steps without repeating first step
TCL: namdcph) Proposal rejected.
TCL: Running for 500 steps without repeating first step
ETITLE: TS BOND ANGLE DIHED IMPRP ELECT VDW BOUNDARY MISC KINETIC TOTAL TEMP POTENTIAL TOTAL3 TEMPAVG PRESSURE GPRESSURE VOLUME PRESSAVG GPRESSAVG
ENERGY: 24000 169.5890 468.9927 481.6590 24.6551 -99143.2256 8457.9432 0.0000 0.0000 15816.1097 -73724.2769 297.4170 -89540.3866 -73686.6286 297.8577 -373.9155 -340.4281 261208.0433 -136.4808 -136.4213
TCL: namdcph) Proposal rejected.
TCL: Running for 500 steps without repeating first step
TCL: namdcph) Proposal rejected.
TCL: Running for 500 steps without repeating first step
ETITLE: TS BOND ANGLE DIHED IMPRP ELECT VDW BOUNDARY MISC KINETIC TOTAL TEMP POTENTIAL TOTAL3 TEMPAVG PRESSURE GPRESSURE VOLUME PRESSAVG GPRESSAVG
ENERGY: 25000 177.2401 455.9557 477.2112 36.0923 -99268.4548 8657.3198 0.0000 0.0000 15664.2691 -73800.3666 294.5617 -89464.6357 -73764.7097 296.9659 -126.0606 -96.2000 261208.0433 -108.5976 -108.6966
TCL: namdcph) Proposal rejected.
TCL: Running for 500 steps without repeating first step
TCL: namdcph) Proposal rejected.
TCL: Running for 500 steps without repeating first step
ETITLE: TS BOND ANGLE DIHED IMPRP ELECT VDW BOUNDARY MISC KINETIC TOTAL TEMP POTENTIAL TOTAL3 TEMPAVG PRESSURE GPRESSURE VOLUME PRESSAVG GPRESSAVG
ENERGY: 26000 154.4291 479.6837 464.9212 31.4205 -99209.0145 8494.1822 0.0000 0.0000 15746.6396 -73837.7382 296.1107 -89584.3778 -73798.6428 296.4626 -191.7808 -163.9521 261208.0433 -103.0555 -102.9547
TCL: namdcph) Proposal rejected.
TCL: Running for 500 steps without repeating first step
TCL: namdcph) Proposal rejected.
TCL: Running for 500 steps without repeating first step
ETITLE: TS BOND ANGLE DIHED IMPRP ELECT VDW BOUNDARY MISC KINETIC TOTAL TEMP POTENTIAL TOTAL3 TEMPAVG PRESSURE GPRESSURE VOLUME PRESSAVG GPRESSAVG
ENERGY: 27000 179.3467 472.7579 470.1675 32.1437 -99128.2391 8469.4163 0.0000 0.0000 15768.2510 -73736.1558 296.5171 -89504.4069 -73693.5553 296.4381 -263.8537 -230.4704 261208.0433 -130.5729 -130.5505
TCL: namdcph) Proposal rejected.
TCL: Running for 500 steps without repeating first step
TCL: namdcph) Proposal rejected.
TCL: Running for 500 steps without repeating first step
ETITLE: TS BOND ANGLE DIHED IMPRP ELECT VDW BOUNDARY MISC KINETIC TOTAL TEMP POTENTIAL TOTAL3 TEMPAVG PRESSURE GPRESSURE VOLUME PRESSAVG GPRESSAVG
ENERGY: 28000 161.9565 474.7167 471.5599 35.0388 -98908.1171 8401.6669 0.0000 0.0000 15766.3495 -73596.8286 296.4813 -89363.1782 -73553.5803 296.6873 -270.3270 -234.3187 261208.0433 -124.7389 -124.7202
TCL: namdcph) Proposal rejected.
TCL: Running for 500 steps without repeating first step
TCL: namdcph) Proposal rejected.
TCL: Running for 500 steps without repeating first step
ETITLE: TS BOND ANGLE DIHED IMPRP ELECT VDW BOUNDARY MISC KINETIC TOTAL TEMP POTENTIAL TOTAL3 TEMPAVG PRESSURE GPRESSURE VOLUME PRESSAVG GPRESSAVG
ENERGY: 29000 145.6369 488.7394 473.5285 36.2416 -99355.6051 8573.7847 0.0000 0.0000 15740.4291 -73897.2450 295.9939 -89637.6740 -73857.6228 296.4052 -155.7025 -115.7933 261208.0433 -91.4567 -91.3621
TCL: namdcph) Proposal rejected.
TCL: Running for 500 steps without repeating first step
TCL: namdcph) Proposal rejected.
TCL: Running for 500 steps without repeating first step
ETITLE: TS BOND ANGLE DIHED IMPRP ELECT VDW BOUNDARY MISC KINETIC TOTAL TEMP POTENTIAL TOTAL3 TEMPAVG PRESSURE GPRESSURE VOLUME PRESSAVG GPRESSAVG
ENERGY: 30000 166.6929 496.9738 474.6106 29.4755 -99500.6212 8808.6349 0.0000 0.0000 15734.2866 -73789.9468 295.8784 -89524.2334 -73752.4317 296.4138 13.5259 45.6479 261208.0433 -87.5911 -87.6629
TCL: namdcph) Proposal rejected.
TCL: Running for 500 steps without repeating first step
TCL: namdcph) Proposal rejected.
TCL: Running for 500 steps without repeating first step
ETITLE: TS BOND ANGLE DIHED IMPRP ELECT VDW BOUNDARY MISC KINETIC TOTAL TEMP POTENTIAL TOTAL3 TEMPAVG PRESSURE GPRESSURE VOLUME PRESSAVG GPRESSAVG
ENERGY: 31000 152.9793 470.5126 470.9855 30.9006 -99186.5147 8486.4090 0.0000 0.0000 15777.7143 -73797.0133 296.6950 -89574.7276 -73759.9200 296.8835 -266.7048 -230.0949 261208.0433 -137.5284 -137.5002
TCL: namdcph) Proposal rejected.
TCL: Running for 500 steps without repeating first step
TCL: namdcph) Proposal accepted, attemping a switch.
TCL: Setting parameter outputEnergies to 75000
TCL: Setting parameter dcdFreq to 0
TCL: Setting parameter firstTimestep to 0
TCL: Setting parameter alch to on
Info: NONBONDED TABLE R-SQUARED SPACING: 0.0625
Info: NONBONDED TABLE SIZE: 769 POINTS
TCL: Writing to files with basename 4/namdcph.md.
TCL: cphpsfgen) creating new alchemical side chain for PP1:950:ASP
TCL: Reloading molecular structure from file 4/namdcph.sw.psf and pdb file 4/namdcph.sw.pdb
Info: READING EXTRA BONDS FILE 4/namdcph.sw.extrabonds
Info: READ 8 EXTRA BONDS
Info: To read alchdata from file: coordinate pdb file (default)
Info: To read alchflag data from column: 5
Info: LONG-RANGE LJ: APPLYING ANALYTICAL CORRECTIONS TO ENERGY AND PRESSURE
Info: LONG-RANGE LJ: AVERAGE A0 AND B0 COEFFICIENTS 70902 AND 74.5446
Info: LONG-RANGE LJ: AVERAGE A1 AND B1 COEFFICIENTS 70902.8 AND 74.5465
Info: STRUCTURE SUMMARY:
Info: 26530 ATOMS
Info: 17956 BONDS
Info: 10120 ANGLES
Info: 2307 DIHEDRALS
Info: 174 IMPROPERS
Info: 54 CROSSTERMS
Info: 0 EXCLUSIONS
Info: 26049 RIGID BONDS
Info: ALCH: 8 ATOMS TO DISAPPEAR IN FINAL STATE
Info: ALCH: 8 ATOMS TO APPEAR IN FINAL STATE
Info: ALCH: 6 DIHEDRALS LINKING INITIAL AND FINAL ATOMS DELETED
Info: 53541 DEGREES OF FREEDOM
Info: 9015 HYDROGEN GROUPS
Info: 4 ATOMS IN LARGEST HYDROGEN GROUP
Info: 9015 MIGRATION GROUPS
Info: 4 ATOMS IN LARGEST MIGRATION GROUP
Info: TOTAL MASS = 161349 amu
Info: TOTAL CHARGE = 1 e
Info: MASS DENSITY = 1.02574 g/cm^3
Info: ATOM DENSITY = 0.101567 atoms/A^3
Info: ADDED 30366 IMPLICIT EXCLUSIONS
Info: NONBONDED TABLE R-SQUARED SPACING: 0.0625
Info: NONBONDED TABLE SIZE: 769 POINTS
TCL: Reinitializing atom data from files with basename 4/namdcph.sw
Info: REMOVING COM VELOCITY -0.0124441 0.00139011 -0.015437
TCL: Running for 75000 steps
ETITLE: TS BOND ANGLE DIHED IMPRP ELECT VDW BOUNDARY MISC KINETIC TOTAL TEMP POTENTIAL TOTAL3 TEMPAVG PRESSURE GPRESSURE VOLUME PRESSAVG GPRESSAVG
ENERGY: 0 162.6219 465.7666 476.2515 31.4275 -99419.2048 8667.6112 0.0000 0.0000 15899.9218 -73715.6043 298.8814 -89615.5261 -73677.4299 296.8613 -48.0152 -12.9692 261208.0433 -88.6287 -88.5805
ENERGY: 75000 167.7163 514.9468 475.8433 30.0521 -99124.1541 8565.3398 0.0000 0.0000 15925.3674 -73444.8885 299.3597 -89370.2559 -73403.3251 297.3910 -159.3738 -122.7045 261208.0433 -107.5671 -107.5759
TCL: Setting parameter outputEnergies to 1000
TCL: Setting parameter dcdFreq to 1000
TCL: namdcph) PP1:950:ASP:1:D WorkCorr    48.2410 CorrWork    -2.1518
TCL: Setting parameter outputEnergies to 1000
TCL: Setting parameter dcdFreq to 1000
TCL: Setting parameter firstTimestep to 31500
TCL: namdcph) Switch accepted!
TCL: Writing to files with basename 4/namdcph.sw.
TCL: cphpsfgen) merging alchemical sidechains for PP1:950:ASP
TCL: Setting parameter alch to off
Info: NONBONDED TABLE R-SQUARED SPACING: 0.0625
Info: NONBONDED TABLE SIZE: 769 POINTS
TCL: namdcph) clearing extraBondsFile 4/namdcph.sw.extrabonds
TCL: Reloading molecular structure from file 4/namdcph.md.psf and pdb file 4/namdcph.md.pdb
Info: READING EXTRA BONDS FILE 4/namdcph.sw.extrabonds
Info: LONG-RANGE LJ: APPLYING ANALYTICAL CORRECTIONS TO ENERGY AND PRESSURE
Info: LONG-RANGE LJ: AVERAGE A AND B COEFFICIENTS 70902.8 AND 74.5465
Info: STRUCTURE SUMMARY:
Info: 26522 ATOMS
Info: 17940 BONDS
Info: 10106 ANGLES
Info: 2284 DIHEDRALS
Info: 173 IMPROPERS
Info: 54 CROSSTERMS
Info: 0 EXCLUSIONS
Info: 26045 RIGID BONDS
Info: 53521 DEGREES OF FREEDOM
Info: 9011 HYDROGEN GROUPS
Info: 4 ATOMS IN LARGEST HYDROGEN GROUP
Info: 9011 MIGRATION GROUPS
Info: 4 ATOMS IN LARGEST MIGRATION GROUP
Info: TOTAL MASS = 161289 amu
Info: TOTAL CHARGE = 1 e
Info: MASS DENSITY = 1.02536 g/cm^3
Info: ATOM DENSITY = 0.101536 atoms/A^3
Info: ADDED 30321 IMPLICIT EXCLUSIONS
Info: NONBONDED TABLE R-SQUARED SPACING: 0.0625
Info: NONBONDED TABLE SIZE: 769 POINTS
TCL: Reinitializing atom data from files with basename 4/namdcph.md
Info: REMOVING COM VELOCITY -0.0244854 0.0315422 -0.00183018
TCL: Running for 500 steps
ETITLE: TS BOND ANGLE DIHED IMPRP ELECT VDW BOUNDARY MISC KINETIC TOTAL TEMP POTENTIAL TOTAL3 TEMPAVG PRESSURE GPRESSURE VOLUME PRESSAVG GPRESSAVG
ENERGY: 32000 161.4965 500.0082 478.6211 32.0337 -99128.8402 8559.6747 0.0000 0.0000 15822.0400 -73574.9660 297.5285 -89397.0060 -73539.6593 298.6724 -160.1362 -126.5219 261208.0433 -160.5273 -160.5021
TCL: namdcph) Proposal rejected.
TCL: Running for 500 steps without repeating first step
TCL: namdcph) Proposal accepted, attemping a switch.
TCL: Setting parameter outputEnergies to 75000
TCL: Setting parameter dcdFreq to 0
TCL: Setting parameter firstTimestep to 0
TCL: Setting parameter alch to on
Info: NONBONDED TABLE R-SQUARED SPACING: 0.0625
Info: NONBONDED TABLE SIZE: 769 POINTS
TCL: Writing to files with basename 4/namdcph.md.
TCL: cphpsfgen) creating new alchemical side chain for PP1:950:ASP
TCL: Reloading molecular structure from file 4/namdcph.sw.psf and pdb file 4/namdcph.sw.pdb
Info: READING EXTRA BONDS FILE 4/namdcph.sw.extrabonds
Info: READ 8 EXTRA BONDS
Info: To read alchdata from file: coordinate pdb file (default)
Info: To read alchflag data from column: 5
Info: LONG-RANGE LJ: APPLYING ANALYTICAL CORRECTIONS TO ENERGY AND PRESSURE
Info: LONG-RANGE LJ: AVERAGE A0 AND B0 COEFFICIENTS 70902.8 AND 74.5465
Info: LONG-RANGE LJ: AVERAGE A1 AND B1 COEFFICIENTS 70902 AND 74.5446
Info: STRUCTURE SUMMARY:
Info: 26530 ATOMS
Info: 17956 BONDS
Info: 10120 ANGLES
Info: 2307 DIHEDRALS
Info: 174 IMPROPERS
Info: 54 CROSSTERMS
Info: 0 EXCLUSIONS
Info: 26049 RIGID BONDS
Info: ALCH: 8 ATOMS TO DISAPPEAR IN FINAL STATE
Info: ALCH: 8 ATOMS TO APPEAR IN FINAL STATE
Info: ALCH: 6 DIHEDRALS LINKING INITIAL AND FINAL ATOMS DELETED
Info: 53541 DEGREES OF FREEDOM
Info: 9015 HYDROGEN GROUPS
Info: 4 ATOMS IN LARGEST HYDROGEN GROUP
Info: 9015 MIGRATION GROUPS
Info: 4 ATOMS IN LARGEST MIGRATION GROUP
Info: TOTAL MASS = 161349 amu
Info: TOTAL CHARGE = 1 e
Info: MASS DENSITY = 1.02574 g/cm^3
Info: ATOM DENSITY = 0.101567 atoms/A^3
Info: ADDED 30366 IMPLICIT EXCLUSIONS
Info: NONBONDED TABLE R-SQUARED SPACING: 0.0625
Info: NONBONDED TABLE SIZE: 769 POINTS
TCL: Reinitializing atom data from files with basename 4/namdcph.sw
Info: REMOVING COM VELOCITY 0.0428656 -0.0136535 -0.00103737
TCL: Running for 75000 steps
ETITLE: TS BOND ANGLE DIHED IMPRP ELECT VDW BOUNDARY MISC KINETIC TOTAL TEMP POTENTIAL TOTAL3 TEMPAVG PRESSURE GPRESSURE VOLUME PRESSAVG GPRESSAVG
ENERGY: 0 167.8188 517.9210 476.1033 36.2192 -99292.0529 8693.8460 0.0000 0.0000 15914.9994 -73485.1452 299.1648 -89400.1446 -73448.9853 299.4648 -57.5380 -33.2173 261208.0433 -72.4285 -72.3611
ENERGY: 75000 199.4336 480.3261 469.2313 35.5509 -98896.6975 8368.2974 0.0000 0.0000 15807.5030 -73536.3551 297.1441 -89343.8581 -73501.8791 297.4006 -488.3322 -454.3305 261208.0433 -117.2482 -117.2510
TCL: Setting parameter outputEnergies to 1000
TCL: Setting parameter dcdFreq to 1000
TCL: namdcph) PP1:950:ASP:D:2 WorkCorr   -48.2410 CorrWork     1.3688
TCL: Setting parameter outputEnergies to 1000
TCL: Setting parameter dcdFreq to 1000
TCL: Setting parameter firstTimestep to 32500
TCL: namdcph) Switch rejected!
TCL: Setting parameter alch to off
Info: NONBONDED TABLE R-SQUARED SPACING: 0.0625
Info: NONBONDED TABLE SIZE: 769 POINTS
TCL: namdcph) clearing extraBondsFile 4/namdcph.sw.extrabonds
TCL: Reloading molecular structure from file 4/namdcph.md.psf and pdb file 4/namdcph.md.pdb
Info: READING EXTRA BONDS FILE 4/namdcph.sw.extrabonds
Info: LONG-RANGE LJ: APPLYING ANALYTICAL CORRECTIONS TO ENERGY AND PRESSURE
Info: LONG-RANGE LJ: AVERAGE A AND B COEFFICIENTS 70902.8 AND 74.5465
Info: STRUCTURE SUMMARY:
Info: 26522 ATOMS
Info: 17940 BONDS
Info: 10106 ANGLES
Info: 2284 DIHEDRALS
Info: 173 IMPROPERS
Info: 54 CROSSTERMS
Info: 0 EXCLUSIONS
Info: 26045 RIGID BONDS
Info: 53521 DEGREES OF FREEDOM
Info: 9011 HYDROGEN GROUPS
Info: 4 ATOMS IN LARGEST HYDROGEN GROUP
Info: 9011 MIGRATION GROUPS
Info: 4 ATOMS IN LARGEST MIGRATION GROUP
Info: TOTAL MASS = 161289 amu
Info: TOTAL CHARGE = 1 e
Info: MASS DENSITY = 1.02536 g/cm^3
Info: ATOM DENSITY = 0.101536 atoms/A^3
Info: ADDED 30321 IMPLICIT EXCLUSIONS
Info: NONBONDED TABLE R-SQUARED SPACING: 0.0625
Info: NONBONDED TABLE SIZE: 769 POINTS
TCL: Reinitializing atom data from files with basename 4/namdcph.md
Info: REMOVING COM VELOCITY 0.0438714 -0.0129247 -0.000733277
TCL: Running for 500 steps
ETITLE: TS BOND ANGLE DIHED IMPRP ELECT VDW BOUNDARY MISC KINETIC TOTAL TEMP POTENTIAL TOTAL3 TEMPAVG PRESSURE GPRESSURE VOLUME PRESSAVG GPRESSAVG
ENERGY: 33000 157.5261 501.4912 477.9779 37.7885 -99406.1422 8815.5200 0.0000 0.0000 15949.9792 -73465.8593 299.9344 -89415.8385 -73429.3271 298.7489 142.2914 173.3775 261208.0433 -142.8164 -142.7154
TCL: namdcph) Proposal accepted, attemping a switch.
TCL: Setting parameter outputEnergies to 75000
TCL: Setting parameter dcdFreq to 0
TCL: Setting parameter firstTimestep to 0
TCL: Setting parameter alch to on
Info: NONBONDED TABLE R-SQUARED SPACING: 0.0625
Info: NONBONDED TABLE SIZE: 769 POINTS
TCL: Writing to files with basename 4/namdcph.md.
TCL: cphpsfgen) creating new alchemical side chain for PP1:950:ASP
TCL: Reloading molecular structure from file 4/namdcph.sw.psf and pdb file 4/namdcph.sw.pdb
Info: READING EXTRA BONDS FILE 4/namdcph.sw.extrabonds
Info: READ 8 EXTRA BONDS
Info: To read alchdata from file: coordinate pdb file (default)
Info: To read alchflag data from column: 5
Info: LONG-RANGE LJ: APPLYING ANALYTICAL CORRECTIONS TO ENERGY AND PRESSURE
Info: LONG-RANGE LJ: AVERAGE A0 AND B0 COEFFICIENTS 70902.8 AND 74.5465
Info: LONG-RANGE LJ: AVERAGE A1 AND B1 COEFFICIENTS 70902 AND 74.5446
Info: STRUCTURE SUMMARY:
Info: 26530 ATOMS
Info: 17956 BONDS
Info: 10120 ANGLES
Info: 2307 DIHEDRALS
Info: 174 IMPROPERS
Info: 54 CROSSTERMS
Info: 0 EXCLUSIONS
Info: 26049 RIGID BONDS
Info: ALCH: 8 ATOMS TO DISAPPEAR IN FINAL STATE
Info: ALCH: 8 ATOMS TO APPEAR IN FINAL STATE
Info: ALCH: 6 DIHEDRALS LINKING INITIAL AND FINAL ATOMS DELETED
Info: 53541 DEGREES OF FREEDOM
Info: 9015 HYDROGEN GROUPS
Info: 4 ATOMS IN LARGEST HYDROGEN GROUP
Info: 9015 MIGRATION GROUPS
Info: 4 ATOMS IN LARGEST MIGRATION GROUP
Info: TOTAL MASS = 161349 amu
Info: TOTAL CHARGE = 1 e
Info: MASS DENSITY = 1.02574 g/cm^3
Info: ATOM DENSITY = 0.101567 atoms/A^3
Info: ADDED 30366 IMPLICIT EXCLUSIONS
Info: NONBONDED TABLE R-SQUARED SPACING: 0.0625
Info: NONBONDED TABLE SIZE: 769 POINTS
TCL: Reinitializing atom data from files with basename 4/namdcph.sw
Info: REMOVING COM VELOCITY 0.0281955 -0.0909567 -0.00824778
TCL: Running for 75000 steps
ETITLE: TS BOND ANGLE DIHED IMPRP ELECT VDW BOUNDARY MISC KINETIC TOTAL TEMP POTENTIAL TOTAL3 TEMPAVG PRESSURE GPRESSURE VOLUME PRESSAVG GPRESSAVG
ENERGY: 0 165.9222 501.4913 477.9777 37.7886 -99406.1322 8815.5200 0.0000 0.0000 15955.8979 -73451.5345 299.9336 -89407.4323 -73415.7757 299.9336 136.6409 172.5463 261208.0433 136.6409 172.5463
ENERGY: 75000 187.9173 472.8757 457.2232 26.6278 -99554.1775 8632.4207 0.0000 0.0000 15814.8781 -73962.2347 297.2828 -89777.1128 -73923.9811 297.1632 -229.4374 -196.1933 261208.0433 -122.5902 -122.5886
TCL: Setting parameter outputEnergies to 1000
TCL: Setting parameter dcdFreq to 1000
TCL: namdcph) PP1:950:ASP:D:2 WorkCorr   -48.2410 CorrWork     1.1535
TCL: Setting parameter outputEnergies to 1000
TCL: Setting parameter dcdFreq to 1000
TCL: Setting parameter firstTimestep to 33000
TCL: namdcph) Switch rejected!
TCL: Setting parameter alch to off
Info: NONBONDED TABLE R-SQUARED SPACING: 0.0625
Info: NONBONDED TABLE SIZE: 769 POINTS
TCL: namdcph) clearing extraBondsFile 4/namdcph.sw.extrabonds
TCL: Reloading molecular structure from file 4/namdcph.md.psf and pdb file 4/namdcph.md.pdb
Info: READING EXTRA BONDS FILE 4/namdcph.sw.extrabonds
Info: LONG-RANGE LJ: APPLYING ANALYTICAL CORRECTIONS TO ENERGY AND PRESSURE
Info: LONG-RANGE LJ: AVERAGE A AND B COEFFICIENTS 70902.8 AND 74.5465
Info: STRUCTURE SUMMARY:
Info: 26522 ATOMS
Info: 17940 BONDS
Info: 10106 ANGLES
Info: 2284 DIHEDRALS
Info: 173 IMPROPERS
Info: 54 CROSSTERMS
Info: 0 EXCLUSIONS
Info: 26045 RIGID BONDS
Info: 53521 DEGREES OF FREEDOM
Info: 9011 HYDROGEN GROUPS
Info: 4 ATOMS IN LARGEST HYDROGEN GROUP
Info: 9011 MIGRATION GROUPS
Info: 4 ATOMS IN LARGEST MIGRATION GROUP
Info: TOTAL MASS = 161289 amu
Info: TOTAL CHARGE = 1 e
Info: MASS DENSITY = 1.02536 g/cm^3
Info: ATOM DENSITY = 0.101536 atoms/A^3
Info: ADDED 30321 IMPLICIT EXCLUSIONS
Info: NONBONDED TABLE R-SQUARED SPACING: 0.0625
Info: NONBONDED TABLE SIZE: 769 POINTS
TCL: Reinitializing atom data from files with basename 4/namdcph.md
Info: REMOVING COM VELOCITY 0.0277891 -0.0902786 -0.00819558
TCL: Running for 500 steps
ETITLE: TS BOND ANGLE DIHED IMPRP ELECT VDW BOUNDARY MISC KINETIC TOTAL TEMP POTENTIAL TOTAL3 TEMPAVG PRESSURE GPRESSURE VOLUME PRESSAVG GPRESSAVG
ENERGY: 33000 157.5261 501.4912 477.9779 37.7885 -99406.1422 8815.5200 0.0000 0.0000 15947.7767 -73468.0618 299.8930 -89415.8385 -73429.1670 299.8930 137.1807 173.0619 261208.0433 137.1807 173.0619
TCL: namdcph) Proposal rejected.
TCL: Running for 500 steps without repeating first step
ETITLE: TS BOND ANGLE DIHED IMPRP ELECT VDW BOUNDARY MISC KINETIC TOTAL TEMP POTENTIAL TOTAL3 TEMPAVG PRESSURE GPRESSURE VOLUME PRESSAVG GPRESSAVG
ENERGY: 34000 171.9428 506.2289 483.5835 35.6026 -99312.4983 8570.1668 0.0000 0.0000 15925.0145 -73619.9591 299.4650 -89544.9736 -73586.8922 299.2063 -205.3442 -175.5082 261208.0433 -77.4493 -77.4402
TCL: namdcph) Proposal rejected.
TCL: Running for 500 steps without repeating first step
TCL: namdcph) Proposal rejected.
TCL: Running for 500 steps without repeating first step
Info: NONBONDED TABLE R-SQUARED SPACING: 0.0625
Info: NONBONDED TABLE SIZE: 769 POINTS
Info: READING EXTRA BONDS FILE 4/namdcph.sw.extrabonds
Info: READ 8 EXTRA BONDS
Info: To read alchdata from file: coordinate pdb file (default)
Info: To read alchflag data from column: 5
Info: LONG-RANGE LJ: APPLYING ANALYTICAL CORRECTIONS TO ENERGY AND PRESSURE
Info: LONG-RANGE LJ: AVERAGE A0 AND B0 COEFFICIENTS 70902.8 AND 74.5465
Info: LONG-RANGE LJ: AVERAGE A1 AND B1 COEFFICIENTS 70902 AND 74.5446
Info: STRUCTURE SUMMARY:
Info: 26530 ATOMS
Info: 17956 BONDS
Info: 10120 ANGLES
Info: 2307 DIHEDRALS
Info: 174 IMPROPERS
Info: 54 CROSSTERMS
Info: 0 EXCLUSIONS
Info: 26049 RIGID BONDS
Info: ALCH: 8 ATOMS TO DISAPPEAR IN FINAL STATE
Info: ALCH: 8 ATOMS TO APPEAR IN FINAL STATE
Info: ALCH: 6 DIHEDRALS LINKING INITIAL AND FINAL ATOMS DELETED
Info: 53541 DEGREES OF FREEDOM
Info: 9015 HYDROGEN GROUPS
Info: 4 ATOMS IN LARGEST HYDROGEN GROUP
Info: 9015 MIGRATION GROUPS
Info: 4 ATOMS IN LARGEST MIGRATION GROUP
Info: TOTAL MASS = 161349 amu
Info: TOTAL CHARGE = 1 e
Info: MASS DENSITY = 1.02574 g/cm^3
Info: ATOM DENSITY = 0.101567 atoms/A^3
Info: ADDED 30366 IMPLICIT EXCLUSIONS
Info: NONBONDED TABLE R-SQUARED SPACING: 0.0625
Info: NONBONDED TABLE SIZE: 769 POINTS
Info: REMOVING COM VELOCITY -0.0428662 -0.0196278 0.0784225
Info: NONBONDED TABLE R-SQUARED SPACING: 0.0625
Info: NONBONDED TABLE SIZE: 769 POINTS
Info: READING EXTRA BONDS FILE 4/namdcph.sw.extrabonds
Info: LONG-RANGE LJ: APPLYING ANALYTICAL CORRECTIONS TO ENERGY AND PRESSURE
Info: LONG-RANGE LJ: AVERAGE A AND B COEFFICIENTS 70902.8 AND 74.5465
Info: STRUCTURE SUMMARY:
Info: 26522 ATOMS
Info: 17940 BONDS
Info: 10106 ANGLES
Info: 2284 DIHEDRALS
Info: 173 IMPROPERS
Info: 54 CROSSTERMS
Info: 0 EXCLUSIONS
Info: 26045 RIGID BONDS
Info: 53521 DEGREES OF FREEDOM
Info: 9011 HYDROGEN GROUPS
Info: 4 ATOMS IN LARGEST HYDROGEN GROUP
Info: 9011 MIGRATION GROUPS
Info: 4 ATOMS IN LARGEST MIGRATION GROUP
Info: TOTAL MASS = 161289 amu
Info: TOTAL CHARGE = 1 e
Info: MASS DENSITY = 1.02536 g/cm^3
Info: ATOM DENSITY = 0.101536 atoms/A^3
Info: ADDED 30321 IMPLICIT EXCLUSIONS
Info: NONBONDED TABLE R-SQUARED SPACING: 0.0625
Info: NONBONDED TABLE SIZE: 769 POINTS
Info: REMOVING COM VELOCITY -0.0436718 -0.0197298 0.0792173
Info: NONBONDED TABLE R-SQUARED SPACING: 0.0625
Info: NONBONDED TABLE SIZE: 769 POINTS
Info: READING EXTRA BONDS FILE 4/namdcph.sw.extrabonds
Info: READ 8 EXTRA BONDS
Info: To read alchdata from file: coordinate pdb file (default)
Info: To read alchflag data from column: 5
Info: LONG-RANGE LJ: APPLYING ANALYTICAL CORRECTIONS TO ENERGY AND PRESSURE
Info: LONG-RANGE LJ: AVERAGE A0 AND B0 COEFFICIENTS 70902.8 AND 74.5465
Info: LONG-RANGE LJ: AVERAGE A1 AND B1 COEFFICIENTS 70902 AND 74.5446
Info: STRUCTURE SUMMARY:
Info: 26530 ATOMS
Info: 17956 BONDS
Info: 10120 ANGLES
Info: 2307 DIHEDRALS
Info: 174 IMPROPERS
Info: 54 CROSSTERMS
Info: 0 EXCLUSIONS
Info: 26049 RIGID BONDS
Info: ALCH: 8 ATOMS TO DISAPPEAR IN FINAL STATE
Info: ALCH: 8 ATOMS TO APPEAR IN FINAL STATE
Info: ALCH: 6 DIHEDRALS LINKING INITIAL AND FINAL ATOMS DELETED
Info: 53541 DEGREES OF FREEDOM
Info: 9015 HYDROGEN GROUPS
Info: 4 ATOMS IN LARGEST HYDROGEN GROUP
Info: 9015 MIGRATION GROUPS
Info: 4 ATOMS IN LARGEST MIGRATION GROUP
Info: TOTAL MASS = 161349 amu
Info: TOTAL CHARGE = 1 e
Info: MASS DENSITY = 1.02574 g/cm^3
Info: ATOM DENSITY = 0.101567 atoms/A^3
Info: ADDED 30366 IMPLICIT EXCLUSIONS
Info: NONBONDED TABLE R-SQUARED SPACING: 0.0625
Info: NONBONDED TABLE SIZE: 769 POINTS
Info: REMOVING COM VELOCITY 0.0109967 -0.0410754 0.0548158
Info: NONBONDED TABLE R-SQUARED SPACING: 0.0625
Info: NONBONDED TABLE SIZE: 769 POINTS
Info: READING EXTRA BONDS FILE 4/namdcph.sw.extrabonds
Info: LONG-RANGE LJ: APPLYING ANALYTICAL CORRECTIONS TO ENERGY AND PRESSURE
Info: LONG-RANGE LJ: AVERAGE A AND B COEFFICIENTS 70902 AND 74.5446
Info: STRUCTURE SUMMARY:
Info: 26522 ATOMS
Info: 17940 BONDS
Info: 10106 ANGLES
Info: 2284 DIHEDRALS
Info: 173 IMPROPERS
Info: 54 CROSSTERMS
Info: 0 EXCLUSIONS
Info: 26045 RIGID BONDS
Info: 53521 DEGREES OF FREEDOM
Info: 9011 HYDROGEN GROUPS
Info: 4 ATOMS IN LARGEST HYDROGEN GROUP
Info: 9011 MIGRATION GROUPS
Info: 4 ATOMS IN LARGEST MIGRATION GROUP
Info: TOTAL MASS = 161289 amu
Info: TOTAL CHARGE = 2 e
Info: MASS DENSITY = 1.02536 g/cm^3
Info: ATOM DENSITY = 0.101536 atoms/A^3
Info: ADDED 30321 IMPLICIT EXCLUSIONS
Info: NONBONDED TABLE R-SQUARED SPACING: 0.0625
Info: NONBONDED TABLE SIZE: 769 POINTS
Info: REMOVING COM VELOCITY 0.030982 0.0133262 -0.0147861
Info: NONBONDED TABLE R-SQUARED SPACING: 0.0625
Info: NONBONDED TABLE SIZE: 769 POINTS
Info: READING EXTRA BONDS FILE 4/namdcph.sw.extrabonds
Info: READ 8 EXTRA BONDS
Info: To read alchdata from file: coordinate pdb file (default)
Info: To read alchflag data from column: 5
Info: LONG-RANGE LJ: APPLYING ANALYTICAL CORRECTIONS TO ENERGY AND PRESSURE
Info: LONG-RANGE LJ: AVERAGE A0 AND B0 COEFFICIENTS 70902 AND 74.5446
Info: LONG-RANGE LJ: AVERAGE A1 AND B1 COEFFICIENTS 70902.8 AND 74.5465
Info: STRUCTURE SUMMARY:
Info: 26530 ATOMS
Info: 17956 BONDS
Info: 10120 ANGLES
Info: 2307 DIHEDRALS
Info: 174 IMPROPERS
Info: 54 CROSSTERMS
Info: 0 EXCLUSIONS
Info: 26049 RIGID BONDS
Info: ALCH: 8 ATOMS TO DISAPPEAR IN FINAL STATE
Info: ALCH: 8 ATOMS TO APPEAR IN FINAL STATE
Info: ALCH: 6 DIHEDRALS LINKING INITIAL AND FINAL ATOMS DELETED
Info: 53541 DEGREES OF FREEDOM
Info: 9015 HYDROGEN GROUPS
Info: 4 ATOMS IN LARGEST HYDROGEN GROUP
Info: 9015 MIGRATION GROUPS
Info: 4 ATOMS IN LARGEST MIGRATION GROUP
Info: TOTAL MASS = 161349 amu
Info: TOTAL CHARGE = 1 e
Info: MASS DENSITY = 1.02574 g/cm^3
Info: ATOM DENSITY = 0.101567 atoms/A^3
Info: ADDED 30366 IMPLICIT EXCLUSIONS
Info: NONBONDED TABLE R-SQUARED SPACING: 0.0625
Info: NONBONDED TABLE SIZE: 769 POINTS
Info: REMOVING COM VELOCITY 0.00314124 -0.0693264 0.035069
Info: NONBONDED TABLE R-SQUARED SPACING: 0.0625
Info: NONBONDED TABLE SIZE: 769 POINTS
Info: READING EXTRA BONDS FILE 4/namdcph.sw.extrabonds
Info: LONG-RANGE LJ: APPLYING ANALYTICAL CORRECTIONS TO ENERGY AND PRESSURE
Info: LONG-RANGE LJ: AVERAGE A AND B COEFFICIENTS 70902.8 AND 74.5465
Info: STRUCTURE SUMMARY:
Info: 26522 ATOMS
Info: 17940 BONDS
Info: 10106 ANGLES
Info: 2284 DIHEDRALS
Info: 173 IMPROPERS
Info: 54 CROSSTERMS
Info: 0 EXCLUSIONS
Info: 26045 RIGID BONDS
Info: 53521 DEGREES OF FREEDOM
Info: 9011 HYDROGEN GROUPS
Info: 4 ATOMS IN LARGEST HYDROGEN GROUP
Info: 9011 MIGRATION GROUPS
Info: 4 ATOMS IN LARGEST MIGRATION GROUP
Info: TOTAL MASS = 161289 amu
Info: TOTAL CHARGE = 1 e
Info: MASS DENSITY = 1.02536 g/cm^3
Info: ATOM DENSITY = 0.101536 atoms/A^3
Info: ADDED 30321 IMPLICIT EXCLUSIONS
Info: NONBONDED TABLE R-SQUARED SPACING: 0.0625
Info: NONBONDED TABLE SIZE: 769 POINTS
Info: REMOVING COM VELOCITY -0.0368526 -0.0536828 -0.0399062
Info: NONBONDED TABLE R-SQUARED SPACING: 0.0625
Info: NONBONDED TABLE SIZE: 769 POINTS
Info: READING EXTRA BONDS FILE 4/namdcph.sw.extrabonds
Info: READ 8 EXTRA BONDS
Info: To read alchdata from file: coordinate pdb file (default)
Info: To read alchflag data from column: 5
Info: LONG-RANGE LJ: APPLYING ANALYTICAL CORRECTIONS TO ENERGY AND PRESSURE
Info: LONG-RANGE LJ: AVERAGE A0 AND B0 COEFFICIENTS 70902.8 AND 74.5465
Info: LONG-RANGE LJ: AVERAGE A1 AND B1 COEFFICIENTS 70902 AND 74.5446
Info: STRUCTURE SUMMARY:
Info: 26530 ATOMS
Info: 17956 BONDS
Info: 10120 ANGLES
Info: 2307 DIHEDRALS
Info: 174 IMPROPERS
Info: 54 CROSSTERMS
Info: 0 EXCLUSIONS
Info: 26049 RIGID BONDS
Info: ALCH: 8 ATOMS TO DISAPPEAR IN FINAL STATE
Info: ALCH: 8 ATOMS TO APPEAR IN FINAL STATE
Info: ALCH: 6 DIHEDRALS LINKING INITIAL AND FINAL ATOMS DELETED
Info: 53541 DEGREES OF FREEDOM
Info: 9015 HYDROGEN GROUPS
Info: 4 ATOMS IN LARGEST HYDROGEN GROUP
Info: 9015 MIGRATION GROUPS
Info: 4 ATOMS IN LARGEST MIGRATION GROUP
Info: TOTAL MASS = 161349 amu
Info: TOTAL CHARGE = 1 e
Info: MASS DENSITY = 1.02574 g/cm^3
Info: ATOM DENSITY = 0.101567 atoms/A^3
Info: ADDED 30366 IMPLICIT EXCLUSIONS
Info: NONBONDED TABLE R-SQUARED SPACING: 0.0625
Info: NONBONDED TABLE SIZE: 769 POINTS
Info: REMOVING COM VELOCITY 0.0589363 0.0100025 -0.027908
Info: NONBONDED TABLE R-SQUARED SPACING: 0.0625
Info: NONBONDED TABLE SIZE: 769 POINTS
Info: READING EXTRA BONDS FILE 4/namdcph.sw.extrabonds
Info: LONG-RANGE LJ: APPLYING ANALYTICAL CORRECTIONS TO ENERGY AND PRESSURE
Info: LONG-RANGE LJ: AVERAGE A AND B COEFFICIENTS 70902.8 AND 74.5465
Info: STRUCTURE SUMMARY:
Info: 26522 ATOMS
Info: 17940 BONDS
Info: 10106 ANGLES
Info: 2284 DIHEDRALS
Info: 173 IMPROPERS
Info: 54 CROSSTERMS
Info: 0 EXCLUSIONS
Info: 26045 RIGID BONDS
Info: 53521 DEGREES OF FREEDOM
Info: 9011 HYDROGEN GROUPS
Info: 4 ATOMS IN LARGEST HYDROGEN GROUP
Info: 9011 MIGRATION GROUPS
Info: 4 ATOMS IN LARGEST MIGRATION GROUP
Info: TOTAL MASS = 161289 amu
Info: TOTAL CHARGE = 1 e
Info: MASS DENSITY = 1.02536 g/cm^3
Info: ATOM DENSITY = 0.101536 atoms/A^3
Info: ADDED 30321 IMPLICIT EXCLUSIONS
Info: NONBONDED TABLE R-SQUARED SPACING: 0.0625
Info: NONBONDED TABLE SIZE: 769 POINTS
Info: REMOVING COM VELOCITY 0.057888 0.010932 -0.0269136
Info: NONBONDED TABLE R-SQUARED SPACING: 0.0625
Info: NONBONDED TABLE SIZE: 769 POINTS
Info: READING EXTRA BONDS FILE 4/namdcph.sw.extrabonds
Info: READ 8 EXTRA BONDS
Info: To read alchdata from file: coordinate pdb file (default)
Info: To read alchflag data from column: 5
Info: LONG-RANGE LJ: APPLYING ANALYTICAL CORRECTIONS TO ENERGY AND PRESSURE
Info: LONG-RANGE LJ: AVERAGE A0 AND B0 COEFFICIENTS 70902.8 AND 74.5465
Info: LONG-RANGE LJ: AVERAGE A1 AND B1 COEFFICIENTS 70902 AND 74.5446
Info: STRUCTURE SUMMARY:
Info: 26530 ATOMS
Info: 17956 BONDS
Info: 10120 ANGLES
Info: 2307 DIHEDRALS
Info: 174 IMPROPERS
Info: 54 CROSSTERMS
Info: 0 EXCLUSIONS
Info: 26049 RIGID BONDS
Info: ALCH: 8 ATOMS TO DISAPPEAR IN FINAL STATE
Info: ALCH: 8 ATOMS TO APPEAR IN FINAL STATE
Info: ALCH: 6 DIHEDRALS LINKING INITIAL AND FINAL ATOMS DELETED
Info: 53541 DEGREES OF FREEDOM
Info: 9015 HYDROGEN GROUPS
Info: 4 ATOMS IN LARGEST HYDROGEN GROUP
Info: 9015 MIGRATION GROUPS
Info: 4 ATOMS IN LARGEST MIGRATION GROUP
Info: TOTAL MASS = 161349 amu
Info: TOTAL CHARGE = 1 e
Info: MASS DENSITY = 1.02574 g/cm^3
Info: ATOM DENSITY = 0.101567 atoms/A^3
Info: ADDED 30366 IMPLICIT EXCLUSIONS
Info: NONBONDED TABLE R-SQUARED SPACING: 0.0625
Info: NONBONDED TABLE SIZE: 769 POINTS
Info: REMOVING COM VELOCITY 0.0591012 0.0499024 1.02913e-05
Info: NONBONDED TABLE R-SQUARED SPACING: 0.0625
Info: NONBONDED TABLE SIZE: 769 POINTS
Info: READING EXTRA BONDS FILE 4/namdcph.sw.extrabonds
Info: LONG-RANGE LJ: APPLYING ANALYTICAL CORRECTIONS TO ENERGY AND PRESSURE
Info: LONG-RANGE LJ: AVERAGE A AND B COEFFICIENTS 70902.8 AND 74.5465
Info: STRUCTURE SUMMARY:
Info: 26522 ATOMS
Info: 17940 BONDS
Info: 10106 ANGLES
Info: 2284 DIHEDRALS
Info: 173 IMPROPERS
Info: 54 CROSSTERMS
Info: 0 EXCLUSIONS
Info: 26045 RIGID BONDS
Info: 53521 DEGREES OF FREEDOM
Info: 9011 HYDROGEN GROUPS
Info: 4 ATOMS IN LARGEST HYDROGEN GROUP
Info: 9011 MIGRATION GROUPS
Info: 4 ATOMS IN LARGEST MIGRATION GROUP
Info: TOTAL MASS = 161289 amu
Info: TOTAL CHARGE = 1 e
Info: MASS DENSITY = 1.02536 g/cm^3
Info: ATOM DENSITY = 0.101536 atoms/A^3
Info: ADDED 30321 IMPLICIT EXCLUSIONS
Info: NONBONDED TABLE R-SQUARED SPACING: 0.0625
Info: NONBONDED TABLE SIZE: 769 POINTS
Info: REMOVING COM VELOCITY 0.0596852 0.0504514 -2.00733e-05
Info: NONBONDED TABLE R-SQUARED SPACING: 0.0625
Info: NONBONDED TABLE SIZE: 769 POINTS
Info: READING EXTRA BONDS FILE 4/namdcph.sw.extrabonds
Info: READ 8 EXTRA BONDS
Info: To read alchdata from file: coordinate pdb file (default)
Info: To read alchflag data from column: 5
Info: LONG-RANGE LJ: APPLYING ANALYTICAL CORRECTIONS TO ENERGY AND PRESSURE
Info: LONG-RANGE LJ: AVERAGE A0 AND B0 COEFFICIENTS 70902.8 AND 74.5465
Info: LONG-RANGE LJ: AVERAGE A1 AND B1 COEFFICIENTS 70902 AND 74.5446
Info: STRUCTURE SUMMARY:
Info: 26530 ATOMS
Info: 17956 BONDS
Info: 10120 ANGLES
Info: 2307 DIHEDRALS
Info: 174 IMPROPERS
Info: 54 CROSSTERMS
Info: 0 EXCLUSIONS
Info: 26049 RIGID BONDS
Info: ALCH: 8 ATOMS TO DISAPPEAR IN FINAL STATE
Info: ALCH: 8 ATOMS TO APPEAR IN FINAL STATE
Info: ALCH: 6 DIHEDRALS LINKING INITIAL AND FINAL ATOMS DELETED
Info: 53541 DEGREES OF FREEDOM
Info: 9015 HYDROGEN GROUPS
Info: 4 ATOMS IN LARGEST HYDROGEN GROUP
Info: 9015 MIGRATION GROUPS
Info: 4 ATOMS IN LARGEST MIGRATION GROUP
Info: TOTAL MASS = 161349 amu
Info: TOTAL CHARGE = 1 e
Info: MASS DENSITY = 1.02574 g/cm^3
Info: ATOM DENSITY = 0.101567 atoms/A^3
Info: ADDED 30366 IMPLICIT EXCLUSIONS
Info: NONBONDED TABLE R-SQUARED SPACING: 0.0625
Info: NONBONDED TABLE SIZE: 769 POINTS
Info: REMOVING COM VELOCITY 0.0106987 0.00134317 0.0690261
Info: NONBONDED TABLE R-SQUARED SPACING: 0.0625
Info: NONBONDED TABLE SIZE: 769 POINTS
Info: READING EXTRA BONDS FILE 4/namdcph.sw.extrabonds
Info: LONG-RANGE LJ: APPLYING ANALYTICAL CORRECTIONS TO ENERGY AND PRESSURE
Info: LONG-RANGE LJ: AVERAGE A AND B COEFFICIENTS 70902.8 AND 74.5465
Info: STRUCTURE SUMMARY:
Info: 26522 ATOMS
Info: 17940 BONDS
Info: 10106 ANGLES
Info: 2284 DIHEDRALS
Info: 173 IMPROPERS
Info: 54 CROSSTERMS
Info: 0 EXCLUSIONS
Info: 26045 RIGID BONDS
Info: 53521 DEGREES OF FREEDOM
Info: 9011 HYDROGEN GROUPS
Info: 4 ATOMS IN LARGEST HYDROGEN GROUP
Info: 9011 MIGRATION GROUPS
Info: 4 ATOMS IN LARGEST MIGRATION GROUP
Info: TOTAL MASS = 161289 amu
Info: TOTAL CHARGE = 1 e
Info: MASS DENSITY = 1.02536 g/cm^3
Info: ATOM DENSITY = 0.101536 atoms/A^3
Info: ADDED 30321 IMPLICIT EXCLUSIONS
Info: NONBONDED TABLE R-SQUARED SPACING: 0.0625
Info: NONBONDED TABLE SIZE: 769 POINTS
Info: REMOVING COM VELOCITY 0.0109867 0.000700638 0.0691037
Info: NONBONDED TABLE R-SQUARED SPACING: 0.0625
Info: NONBONDED TABLE SIZE: 769 POINTS
Info: READING EXTRA BONDS FILE 4/namdcph.sw.extrabonds
Info: READ 8 EXTRA BONDS
Info: To read alchdata from file: coordinate pdb file (default)
Info: To read alchflag data from column: 5
Info: LONG-RANGE LJ: APPLYING ANALYTICAL CORRECTIONS TO ENERGY AND PRESSURE
Info: LONG-RANGE LJ: AVERAGE A0 AND B0 COEFFICIENTS 70902.8 AND 74.5465
Info: LONG-RANGE LJ: AVERAGE A1 AND B1 COEFFICIENTS 70902 AND 74.5446
Info: STRUCTURE SUMMARY:
Info: 26530 ATOMS
Info: 17956 BONDS
Info: 10120 ANGLES
Info: 2307 DIHEDRALS
Info: 174 IMPROPERS
Info: 54 CROSSTERMS
Info: 0 EXCLUSIONS
Info: 26049 RIGID BONDS
Info: ALCH: 8 ATOMS TO DISAPPEAR IN FINAL STATE
Info: ALCH: 8 ATOMS TO APPEAR IN FINAL STATE
Info: ALCH: 6 DIHEDRALS LINKING INITIAL AND FINAL ATOMS DELETED
Info: 53541 DEGREES OF FREEDOM
Info: 9015 HYDROGEN GROUPS
Info: 4 ATOMS IN LARGEST HYDROGEN GROUP
Info: 9015 MIGRATION GROUPS
Info: 4 ATOMS IN LARGEST MIGRATION GROUP
Info: TOTAL MASS = 161349 amu
Info: TOTAL CHARGE = 1 e
Info: MASS DENSITY = 1.02574 g/cm^3
Info: ATOM DENSITY = 0.101567 atoms/A^3
Info: ADDED 30366 IMPLICIT EXCLUSIONS
Info: NONBONDED TABLE R-SQUARED SPACING: 0.0625
Info: NONBONDED TABLE SIZE: 769 POINTS
Info: REMOVING COM VELOCITY -0.0214859 0.00409059 -0.0464543
Info: NONBONDED TABLE R-SQUARED SPACING: 0.0625
Info: NONBONDED TABLE SIZE: 769 POINTS
Info: READING EXTRA BONDS FILE 4/namdcph.sw.extrabonds
Info: LONG-RANGE LJ: APPLYING ANALYTICAL CORRECTIONS TO ENERGY AND PRESSURE
Info: LONG-RANGE LJ: AVERAGE A AND B COEFFICIENTS 70902.8 AND 74.5465
Info: STRUCTURE SUMMARY:
Info: 26522 ATOMS
Info: 17940 BONDS
Info: 10106 ANGLES
Info: 2284 DIHEDRALS
Info: 173 IMPROPERS
Info: 54 CROSSTERMS
Info: 0 EXCLUSIONS
Info: 26045 RIGID BONDS
Info: 53521 DEGREES OF FREEDOM
Info: 9011 HYDROGEN GROUPS
Info: 4 ATOMS IN LARGEST HYDROGEN GROUP
Info: 9011 MIGRATION GROUPS
Info: 4 ATOMS IN LARGEST MIGRATION GROUP
Info: TOTAL MASS = 161289 amu
Info: TOTAL CHARGE = 1 e
Info: MASS DENSITY = 1.02536 g/cm^3
Info: ATOM DENSITY = 0.101536 atoms/A^3
Info: ADDED 30321 IMPLICIT EXCLUSIONS
Info: NONBONDED TABLE R-SQUARED SPACING: 0.0625
Info: NONBONDED TABLE SIZE: 769 POINTS
Info: REMOVING COM VELOCITY -0.0214266 0.00356347 -0.0465106
Info: NONBONDED TABLE R-SQUARED SPACING: 0.0625
Info: NONBONDED TABLE SIZE: 769 POINTS
Info: READING EXTRA BONDS FILE 4/namdcph.sw.extrabonds
Info: READ 8 EXTRA BONDS
Info: To read alchdata from file: coordinate pdb file (default)
Info: To read alchflag data from column: 5
Info: LONG-RANGE LJ: APPLYING ANALYTICAL CORRECTIONS TO ENERGY AND PRESSURE
Info: LONG-RANGE LJ: AVERAGE A0 AND B0 COEFFICIENTS 70902.8 AND 74.5465
Info: LONG-RANGE LJ: AVERAGE A1 AND B1 COEFFICIENTS 70902 AND 74.5446
Info: STRUCTURE SUMMARY:
Info: 26530 ATOMS
Info: 17956 BONDS
Info: 10120 ANGLES
Info: 2307 DIHEDRALS
Info: 174 IMPROPERS
Info: 54 CROSSTERMS
Info: 0 EXCLUSIONS
Info: 26049 RIGID BONDS
Info: ALCH: 8 ATOMS TO DISAPPEAR IN FINAL STATE
Info: ALCH: 8 ATOMS TO APPEAR IN FINAL STATE
Info: ALCH: 6 DIHEDRALS LINKING INITIAL AND FINAL ATOMS DELETED
Info: 53541 DEGREES OF FREEDOM
Info: 9015 HYDROGEN GROUPS
Info: 4 ATOMS IN LARGEST HYDROGEN GROUP
Info: 9015 MIGRATION GROUPS
Info: 4 ATOMS IN LARGEST MIGRATION GROUP
Info: TOTAL MASS = 161349 amu
Info: TOTAL CHARGE = 1 e
Info: MASS DENSITY = 1.02574 g/cm^3
Info: ATOM DENSITY = 0.101567 atoms/A^3
Info: ADDED 30366 IMPLICIT EXCLUSIONS
Info: NONBONDED TABLE R-SQUARED SPACING: 0.0625
Info: NONBONDED TABLE SIZE: 769 POINTS
Info: REMOVING COM VELOCITY -0.0182157 -0.0112581 -0.0661181
Info: NONBONDED TABLE R-SQUARED SPACING: 0.0625
Info: NONBONDED TABLE SIZE: 769 POINTS
Info: READING EXTRA BONDS FILE 4/namdcph.sw.extrabonds
Info: LONG-RANGE LJ: APPLYING ANALYTICAL CORRECTIONS TO ENERGY AND PRESSURE
Info: LONG-RANGE LJ: AVERAGE A AND B COEFFICIENTS 70902.8 AND 74.5465
Info: STRUCTURE SUMMARY:
Info: 26522 ATOMS
Info: 17940 BONDS
Info: 10106 ANGLES
Info: 2284 DIHEDRALS
Info: 173 IMPROPERS
Info: 54 CROSSTERMS
Info: 0 EXCLUSIONS
Info: 26045 RIGID BONDS
Info: 53521 DEGREES OF FREEDOM
Info: 9011 HYDROGEN GROUPS
Info: 4 ATOMS IN LARGEST HYDROGEN GROUP
Info: 9011 MIGRATION GROUPS
Info: 4 ATOMS IN LARGEST MIGRATION GROUP
Info: TOTAL MASS = 161289 amu
Info: TOTAL CHARGE = 1 e
Info: MASS DENSITY = 1.02536 g/cm^3
Info: ATOM DENSITY = 0.101536 atoms/A^3
Info: ADDED 30321 IMPLICIT EXCLUSIONS
Info: NONBONDED TABLE R-SQUARED SPACING: 0.0625
Info: NONBONDED TABLE SIZE: 769 POINTS
Info: REMOVING COM VELOCITY -0.0169997 -0.0121255 -0.0661249
Info: NONBONDED TABLE R-SQUARED SPACING: 0.0625
Info: NONBONDED TABLE SIZE: 769 POINTS
Info: READING EXTRA BONDS FILE 4/namdcph.sw.extrabonds
Info: READ 8 EXTRA BONDS
Info: To read alchdata from file: coordinate pdb file (default)
Info: To read alchflag data from column: 5
Info: LONG-RANGE LJ: APPLYING ANALYTICAL CORRECTIONS TO ENERGY AND PRESSURE
Info: LONG-RANGE LJ: AVERAGE A0 AND B0 COEFFICIENTS 70902.8 AND 74.5465
Info: LONG-RANGE LJ: AVERAGE A1 AND B1 COEFFICIENTS 70902 AND 74.5446
Info: STRUCTURE SUMMARY:
Info: 26530 ATOMS
Info: 17956 BONDS
Info: 10120 ANGLES
Info: 2307 DIHEDRALS
Info: 174 IMPROPERS
Info: 54 CROSSTERMS
Info: 0 EXCLUSIONS
Info: 26049 RIGID BONDS
Info: ALCH: 8 ATOMS TO DISAPPEAR IN FINAL STATE
Info: ALCH: 8 ATOMS TO APPEAR IN FINAL STATE
Info: ALCH: 6 DIHEDRALS LINKING INITIAL AND FINAL ATOMS DELETED
Info: 53541 DEGREES OF FREEDOM
Info: 9015 HYDROGEN GROUPS
Info: 4 ATOMS IN LARGEST HYDROGEN GROUP
Info: 9015 MIGRATION GROUPS
Info: 4 ATOMS IN LARGEST MIGRATION GROUP
Info: TOTAL MASS = 161349 amu
Info: TOTAL CHARGE = 1 e
Info: MASS DENSITY = 1.02574 g/cm^3
Info: ATOM DENSITY = 0.101567 atoms/A^3
Info: ADDED 30366 IMPLICIT EXCLUSIONS
Info: NONBONDED TABLE R-SQUARED SPACING: 0.0625
Info: NONBONDED TABLE SIZE: 769 POINTS
Info: REMOVING COM VELOCITY 0.0292181 0.0681119 0.089752
Info: NONBONDED TABLE R-SQUARED SPACING: 0.0625
Info: NONBONDED TABLE SIZE: 769 POINTS
Info: READING EXTRA BONDS FILE 4/namdcph.sw.extrabonds
Info: LONG-RANGE LJ: APPLYING ANALYTICAL CORRECTIONS TO ENERGY AND PRESSURE
Info: LONG-RANGE LJ: AVERAGE A AND B COEFFICIENTS 70902.8 AND 74.5465
Info: STRUCTURE SUMMARY:
Info: 26522 ATOMS
Info: 17940 BONDS
Info: 10106 ANGLES
Info: 2284 DIHEDRALS
Info: 173 IMPROPERS
Info: 54 CROSSTERMS
Info: 0 EXCLUSIONS
Info: 26045 RIGID BONDS
Info: 53521 DEGREES OF FREEDOM
Info: 9011 HYDROGEN GROUPS
Info: 4 ATOMS IN LARGEST HYDROGEN GROUP
Info: 9011 MIGRATION GROUPS
Info: 4 ATOMS IN LARGEST MIGRATION GROUP
Info: TOTAL MASS = 161289 amu
Info: TOTAL CHARGE = 1 e
Info: MASS DENSITY = 1.02536 g/cm^3
Info: ATOM DENSITY = 0.101536 atoms/A^3
Info: ADDED 30321 IMPLICIT EXCLUSIONS
Info: NONBONDED TABLE R-SQUARED SPACING: 0.0625
Info: NONBONDED TABLE SIZE: 769 POINTS
Info: REMOVING COM VELOCITY 0.0293377 0.0694856 0.0893287
Info: NONBONDED TABLE R-SQUARED SPACING: 0.0625
Info: NONBONDED TABLE SIZE: 769 POINTS
Info: READING EXTRA BONDS FILE 4/namdcph.sw.extrabonds
Info: READ 8 EXTRA BONDS
Info: To read alchdata from file: coordinate pdb file (default)
Info: To read alchflag data from column: 5
Info: LONG-RANGE LJ: APPLYING ANALYTICAL CORRECTIONS TO ENERGY AND PRESSURE
Info: LONG-RANGE LJ: AVERAGE A0 AND B0 COEFFICIENTS 70902.8 AND 74.5465
Info: LONG-RANGE LJ: AVERAGE A1 AND B1 COEFFICIENTS 70902 AND 74.5446
Info: STRUCTURE SUMMARY:
Info: 26530 ATOMS
Info: 17956 BONDS
Info: 10120 ANGLES
Info: 2307 DIHEDRALS
Info: 174 IMPROPERS
Info: 54 CROSSTERMS
Info: 0 EXCLUSIONS
Info: 26049 RIGID BONDS
Info: ALCH: 8 ATOMS TO DISAPPEAR IN FINAL STATE
Info: ALCH: 8 ATOMS TO APPEAR IN FINAL STATE
Info: ALCH: 6 DIHEDRALS LINKING INITIAL AND FINAL ATOMS DELETED
Info: 53541 DEGREES OF FREEDOM
Info: 9015 HYDROGEN GROUPS
Info: 4 ATOMS IN LARGEST HYDROGEN GROUP
Info: 9015 MIGRATION GROUPS
Info: 4 ATOMS IN LARGEST MIGRATION GROUP
Info: TOTAL MASS = 161349 amu
Info: TOTAL CHARGE = 1 e
Info: MASS DENSITY = 1.02574 g/cm^3
Info: ATOM DENSITY = 0.101567 atoms/A^3
Info: ADDED 30366 IMPLICIT EXCLUSIONS
Info: NONBONDED TABLE R-SQUARED SPACING: 0.0625
Info: NONBONDED TABLE SIZE: 769 POINTS
Info: REMOVING COM VELOCITY 0.0258543 0.0307083 0.0193158
Info: NONBONDED TABLE R-SQUARED SPACING: 0.0625
Info: NONBONDED TABLE SIZE: 769 POINTS
Info: READING EXTRA BONDS FILE 4/namdcph.sw.extrabonds
Info: LONG-RANGE LJ: APPLYING ANALYTICAL CORRECTIONS TO ENERGY AND PRESSURE
Info: LONG-RANGE LJ: AVERAGE A AND B COEFFICIENTS 70902.8 AND 74.5465
Info: STRUCTURE SUMMARY:
Info: 26522 ATOMS
Info: 17940 BONDS
Info: 10106 ANGLES
Info: 2284 DIHEDRALS
Info: 173 IMPROPERS
Info: 54 CROSSTERMS
Info: 0 EXCLUSIONS
Info: 26045 RIGID BONDS
Info: 53521 DEGREES OF FREEDOM
Info: 9011 HYDROGEN GROUPS
Info: 4 ATOMS IN LARGEST HYDROGEN GROUP
Info: 9011 MIGRATION GROUPS
Info: 4 ATOMS IN LARGEST MIGRATION GROUP
Info: TOTAL MASS = 161289 amu
Info: TOTAL CHARGE = 1 e
Info: MASS DENSITY = 1.02536 g/cm^3
Info: ATOM DENSITY = 0.101536 atoms/A^3
Info: ADDED 30321 IMPLICIT EXCLUSIONS
Info: NONBONDED TABLE R-SQUARED SPACING: 0.0625
Info: NONBONDED TABLE SIZE: 769 POINTS
Info: REMOVING COM VELOCITY 0.0265924 0.0308809 0.0206747
Info: NONBONDED TABLE R-SQUARED SPACING: 0.0625
Info: NONBONDED TABLE SIZE: 769 POINTS
Info: READING EXTRA BONDS FILE 4/namdcph.sw.extrabonds
Info: READ 8 EXTRA BONDS
Info: To read alchdata from file: coordinate pdb file (default)
Info: To read alchflag data from column: 5
Info: LONG-RANGE LJ: APPLYING ANALYTICAL CORRECTIONS TO ENERGY AND PRESSURE
Info: LONG-RANGE LJ: AVERAGE A0 AND B0 COEFFICIENTS 70902.8 AND 74.5465
Info: LONG-RANGE LJ: AVERAGE A1 AND B1 COEFFICIENTS 70902 AND 74.5446
Info: STRUCTURE SUMMARY:
Info: 26530 ATOMS
Info: 17956 BONDS
Info: 10120 ANGLES
Info: 2307 DIHEDRALS
Info: 174 IMPROPERS
Info: 54 CROSSTERMS
Info: 0 EXCLUSIONS
Info: 26049 RIGID BONDS
Info: ALCH: 8 ATOMS TO DISAPPEAR IN FINAL STATE
Info: ALCH: 8 ATOMS TO APPEAR IN FINAL STATE
Info: ALCH: 6 DIHEDRALS LINKING INITIAL AND FINAL ATOMS DELETED
Info: 53541 DEGREES OF FREEDOM
Info: 9015 HYDROGEN GROUPS
Info: 4 ATOMS IN LARGEST HYDROGEN GROUP
Info: 9015 MIGRATION GROUPS
Info: 4 ATOMS IN LARGEST MIGRATION GROUP
Info: TOTAL MASS = 161349 amu
Info: TOTAL CHARGE = 1 e
Info: MASS DENSITY = 1.02574 g/cm^3
Info: ATOM DENSITY = 0.101567 atoms/A^3
Info: ADDED 30366 IMPLICIT EXCLUSIONS
Info: NONBONDED TABLE R-SQUARED SPACING: 0.0625
Info: NONBONDED TABLE SIZE: 769 POINTS
Info: REMOVING COM VELOCITY 0.035926 0.0138936 0.0193897
Info: NONBONDED TABLE R-SQUARED SPACING: 0.0625
Info: NONBONDED TABLE SIZE: 769 POINTS
Info: READING EXTRA BONDS FILE 4/namdcph.sw.extrabonds
Info: LONG-RANGE LJ: APPLYING ANALYTICAL CORRECTIONS TO ENERGY AND PRESSURE
Info: LONG-RANGE LJ: AVERAGE A AND B COEFFICIENTS 70902.8 AND 74.5465
Info: STRUCTURE SUMMARY:
Info: 26522 ATOMS
Info: 17940 BONDS
Info: 10106 ANGLES
Info: 2284 DIHEDRALS
Info: 173 IMPROPERS
Info: 54 CROSSTERMS
Info: 0 EXCLUSIONS
Info: 26045 RIGID BONDS
Info: 53521 DEGREES OF FREEDOM
Info: 9011 HYDROGEN GROUPS
Info: 4 ATOMS IN LARGEST HYDROGEN GROUP
Info: 9011 MIGRATION GROUPS
Info: 4 ATOMS IN LARGEST MIGRATION GROUP
Info: TOTAL MASS = 161289 amu
Info: TOTAL CHARGE = 1 e
Info: MASS DENSITY = 1.02536 g/cm^3
Info: ATOM DENSITY = 0.101536 atoms/A^3
Info: ADDED 30321 IMPLICIT EXCLUSIONS
Info: NONBONDED TABLE R-SQUARED SPACING: 0.0625
Info: NONBONDED TABLE SIZE: 769 POINTS
Info: REMOVING COM VELOCITY 0.0365746 0.0153927 0.0189418
Info: NONBONDED TABLE R-SQUARED SPACING: 0.0625
Info: NONBONDED TABLE SIZE: 769 POINTS
Info: READING EXTRA BONDS FILE 4/namdcph.sw.extrabonds
Info: READ 8 EXTRA BONDS
Info: To read alchdata from file: coordinate pdb file (default)
Info: To read alchflag data from column: 5
Info: LONG-RANGE LJ: APPLYING ANALYTICAL CORRECTIONS TO ENERGY AND PRESSURE
Info: LONG-RANGE LJ: AVERAGE A0 AND B0 COEFFICIENTS 70902.8 AND 74.5465
Info: LONG-RANGE LJ: AVERAGE A1 AND B1 COEFFICIENTS 70902 AND 74.5446
Info: STRUCTURE SUMMARY:
Info: 26530 ATOMS
Info: 17956 BONDS
Info: 10120 ANGLES
Info: 2307 DIHEDRALS
Info: 174 IMPROPERS
Info: 54 CROSSTERMS
Info: 0 EXCLUSIONS
Info: 26049 RIGID BONDS
Info: ALCH: 8 ATOMS TO DISAPPEAR IN FINAL STATE
Info: ALCH: 8 ATOMS TO APPEAR IN FINAL STATE
Info: ALCH: 6 DIHEDRALS LINKING INITIAL AND FINAL ATOMS DELETED
Info: 53541 DEGREES OF FREEDOM
Info: 9015 HYDROGEN GROUPS
Info: 4 ATOMS IN LARGEST HYDROGEN GROUP
Info: 9015 MIGRATION GROUPS
Info: 4 ATOMS IN LARGEST MIGRATION GROUP
Info: TOTAL MASS = 161349 amu
Info: TOTAL CHARGE = 1 e
Info: MASS DENSITY = 1.02574 g/cm^3
Info: ATOM DENSITY = 0.101567 atoms/A^3
Info: ADDED 30366 IMPLICIT EXCLUSIONS
Info: NONBONDED TABLE R-SQUARED SPACING: 0.0625
Info: NONBONDED TABLE SIZE: 769 POINTS
Info: REMOVING COM VELOCITY 0.0334024 -0.0161387 0.0372375
Info: NONBONDED TABLE R-SQUARED SPACING: 0.0625
Info: NONBONDED TABLE SIZE: 769 POINTS
Info: READING EXTRA BONDS FILE 4/namdcph.sw.extrabonds
Info: LONG-RANGE LJ: APPLYING ANALYTICAL CORRECTIONS TO ENERGY AND PRESSURE
Info: LONG-RANGE LJ: AVERAGE A AND B COEFFICIENTS 70902.8 AND 74.5465
Info: STRUCTURE SUMMARY:
Info: 26522 ATOMS
Info: 17940 BONDS
Info: 10106 ANGLES
Info: 2284 DIHEDRALS
Info: 173 IMPROPERS
Info: 54 CROSSTERMS
Info: 0 EXCLUSIONS
Info: 26045 RIGID BONDS
Info: 53521 DEGREES OF FREEDOM
Info: 9011 HYDROGEN GROUPS
Info: 4 ATOMS IN LARGEST HYDROGEN GROUP
Info: 9011 MIGRATION GROUPS
Info: 4 ATOMS IN LARGEST MIGRATION GROUP
Info: TOTAL MASS = 161289 amu
Info: TOTAL CHARGE = 1 e
Info: MASS DENSITY = 1.02536 g/cm^3
Info: ATOM DENSITY = 0.101536 atoms/A^3
Info: ADDED 30321 IMPLICIT EXCLUSIONS
Info: NONBONDED TABLE R-SQUARED SPACING: 0.0625
Info: NONBONDED TABLE SIZE: 769 POINTS
Info: REMOVING COM VELOCITY 0.0330031 -0.0165052 0.0362473
Info: NONBONDED TABLE R-SQUARED SPACING: 0.0625
Info: NONBONDED TABLE SIZE: 769 POINTS
Info: READING EXTRA BONDS FILE 4/namdcph.sw.extrabonds
Info: READ 8 EXTRA BONDS
Info: To read alchdata from file: coordinate pdb file (default)
Info: To read alchflag data from column: 5
Info: LONG-RANGE LJ: APPLYING ANALYTICAL CORRECTIONS TO ENERGY AND PRESSURE
Info: LONG-RANGE LJ: AVERAGE A0 AND B0 COEFFICIENTS 70902.8 AND 74.5465
Info: LONG-RANGE LJ: AVERAGE A1 AND B1 COEFFICIENTS 70902 AND 74.5446
Info: STRUCTURE SUMMARY:
Info: 26530 ATOMS
Info: 17956 BONDS
Info: 10120 ANGLES
Info: 2307 DIHEDRALS
Info: 174 IMPROPERS
Info: 54 CROSSTERMS
Info: 0 EXCLUSIONS
Info: 26049 RIGID BONDS
Info: ALCH: 8 ATOMS TO DISAPPEAR IN FINAL STATE
Info: ALCH: 8 ATOMS TO APPEAR IN FINAL STATE
Info: ALCH: 6 DIHEDRALS LINKING INITIAL AND FINAL ATOMS DELETED
Info: 53541 DEGREES OF FREEDOM
Info: 9015 HYDROGEN GROUPS
Info: 4 ATOMS IN LARGEST HYDROGEN GROUP
Info: 9015 MIGRATION GROUPS
Info: 4 ATOMS IN LARGEST MIGRATION GROUP
Info: TOTAL MASS = 161349 amu
Info: TOTAL CHARGE = 1 e
Info: MASS DENSITY = 1.02574 g/cm^3
Info: ATOM DENSITY = 0.101567 atoms/A^3
Info: ADDED 30366 IMPLICIT EXCLUSIONS
Info: NONBONDED TABLE R-SQUARED SPACING: 0.0625
Info: NONBONDED TABLE SIZE: 769 POINTS
Info: REMOVING COM VELOCITY -0.0659463 0.0190701 0.0219852
Info: NONBONDED TABLE R-SQUARED SPACING: 0.0625
Info: NONBONDED TABLE SIZE: 769 POINTS
Info: READING EXTRA BONDS FILE 4/namdcph.sw.extrabonds
Info: LONG-RANGE LJ: APPLYING ANALYTICAL CORRECTIONS TO ENERGY AND PRESSURE
Info: LONG-RANGE LJ: AVERAGE A AND B COEFFICIENTS 70902.8 AND 74.5465
Info: STRUCTURE SUMMARY:
Info: 26522 ATOMS
Info: 17940 BONDS
Info: 10106 ANGLES
Info: 2284 DIHEDRALS
Info: 173 IMPROPERS
Info: 54 CROSSTERMS
Info: 0 EXCLUSIONS
Info: 26045 RIGID BONDS
Info: 53521 DEGREES OF FREEDOM
Info: 9011 HYDROGEN GROUPS
Info: 4 ATOMS IN LARGEST HYDROGEN GROUP
Info: 9011 MIGRATION GROUPS
Info: 4 ATOMS IN LARGEST MIGRATION GROUP
Info: TOTAL MASS = 161289 amu
Info: TOTAL CHARGE = 1 e
Info: MASS DENSITY = 1.02536 g/cm^3
Info: ATOM DENSITY = 0.101536 atoms/A^3
Info: ADDED 30321 IMPLICIT EXCLUSIONS
Info: NONBONDED TABLE R-SQUARED SPACING: 0.0625
Info: NONBONDED TABLE SIZE: 769 POINTS
Info: REMOVING COM VELOCITY -0.0664131 0.018771 0.021137
Info: NONBONDED TABLE R-SQUARED SPACING: 0.0625
Info: NONBONDED TABLE SIZE: 769 POINTS
Info: READING EXTRA BONDS FILE 4/namdcph.sw.extrabonds
Info: READ 8 EXTRA BONDS
Info: To read alchdata from file: coordinate pdb file (default)
Info: To read alchflag data from column: 5
Info: LONG-RANGE LJ: APPLYING ANALYTICAL CORRECTIONS TO ENERGY AND PRESSURE
Info: LONG-RANGE LJ: AVERAGE A0 AND B0 COEFFICIENTS 70902.8 AND 74.5465
Info: LONG-RANGE LJ: AVERAGE A1 AND B1 COEFFICIENTS 70902 AND 74.5446
Info: STRUCTURE SUMMARY:
Info: 26530 ATOMS
Info: 17956 BONDS
Info: 10120 ANGLES
Info: 2307 DIHEDRALS
Info: 174 IMPROPERS
Info: 54 CROSSTERMS
Info: 0 EXCLUSIONS
Info: 26049 RIGID BONDS
Info: ALCH: 8 ATOMS TO DISAPPEAR IN FINAL STATE
Info: ALCH: 8 ATOMS TO APPEAR IN FINAL STATE
Info: ALCH: 6 DIHEDRALS LINKING INITIAL AND FINAL ATOMS DELETED
Info: 53541 DEGREES OF FREEDOM
Info: 9015 HYDROGEN GROUPS
Info: 4 ATOMS IN LARGEST HYDROGEN GROUP
Info: 9015 MIGRATION GROUPS
Info: 4 ATOMS IN LARGEST MIGRATION GROUP
Info: TOTAL MASS = 161349 amu
Info: TOTAL CHARGE = 1 e
Info: MASS DENSITY = 1.02574 g/cm^3
Info: ATOM DENSITY = 0.101567 atoms/A^3
Info: ADDED 30366 IMPLICIT EXCLUSIONS
Info: NONBONDED TABLE R-SQUARED SPACING: 0.0625
Info: NONBONDED TABLE SIZE: 769 POINTS
Info: REMOVING COM VELOCITY -0.0261813 -0.0414614 0.030896
Info: NONBONDED TABLE R-SQUARED SPACING: 0.0625
Info: NONBONDED TABLE SIZE: 769 POINTS
Info: READING EXTRA BONDS FILE 4/namdcph.sw.extrabonds
Info: LONG-RANGE LJ: APPLYING ANALYTICAL CORRECTIONS TO ENERGY AND PRESSURE
Info: LONG-RANGE LJ: AVERAGE A AND B COEFFICIENTS 70902.8 AND 74.5465
Info: STRUCTURE SUMMARY:
Info: 26522 ATOMS
Info: 17940 BONDS
Info: 10106 ANGLES
Info: 2284 DIHEDRALS
Info: 173 IMPROPERS
Info: 54 CROSSTERMS
Info: 0 EXCLUSIONS
Info: 26045 RIGID BONDS
Info: 53521 DEGREES OF FREEDOM
Info: 9011 HYDROGEN GROUPS
Info: 4 ATOMS IN LARGEST HYDROGEN GROUP
Info: 9011 MIGRATION GROUPS
Info: 4 ATOMS IN LARGEST MIGRATION GROUP
Info: TOTAL MASS = 161289 amu
Info: TOTAL CHARGE = 1 e
Info: MASS DENSITY = 1.02536 g/cm^3
Info: ATOM DENSITY = 0.101536 atoms/A^3
Info: ADDED 30321 IMPLICIT EXCLUSIONS
Info: NONBONDED TABLE R-SQUARED SPACING: 0.0625
Info: NONBONDED TABLE SIZE: 769 POINTS
Info: REMOVING COM VELOCITY -0.0272505 -0.0415794 0.0307983
Info: NONBONDED TABLE R-SQUARED SPACING: 0.0625
Info: NONBONDED TABLE SIZE: 769 POINTS
Info: READING EXTRA BONDS FILE 4/namdcph.sw.extrabonds
Info: READ 8 EXTRA BONDS
Info: To read alchdata from file: coordinate pdb file (default)
Info: To read alchflag data from column: 5
Info: LONG-RANGE LJ: APPLYING ANALYTICAL CORRECTIONS TO ENERGY AND PRESSURE
Info: LONG-RANGE LJ: AVERAGE A0 AND B0 COEFFICIENTS 70902.8 AND 74.5465
Info: LONG-RANGE LJ: AVERAGE A1 AND B1 COEFFICIENTS 70902 AND 74.5446
Info: STRUCTURE SUMMARY:
Info: 26530 ATOMS
Info: 17956 BONDS
Info: 10120 ANGLES
Info: 2307 DIHEDRALS
Info: 174 IMPROPERS
Info: 54 CROSSTERMS
Info: 0 EXCLUSIONS
Info: 26049 RIGID BONDS
Info: ALCH: 8 ATOMS TO DISAPPEAR IN FINAL STATE
Info: ALCH: 8 ATOMS TO APPEAR IN FINAL STATE
Info: ALCH: 6 DIHEDRALS LINKING INITIAL AND FINAL ATOMS DELETED
Info: 53541 DEGREES OF FREEDOM
Info: 9015 HYDROGEN GROUPS
Info: 4 ATOMS IN LARGEST HYDROGEN GROUP
Info: 9015 MIGRATION GROUPS
Info: 4 ATOMS IN LARGEST MIGRATION GROUP
Info: TOTAL MASS = 161349 amu
Info: TOTAL CHARGE = 1 e
Info: MASS DENSITY = 1.02574 g/cm^3
Info: ATOM DENSITY = 0.101567 atoms/A^3
Info: ADDED 30366 IMPLICIT EXCLUSIONS
Info: NONBONDED TABLE R-SQUARED SPACING: 0.0625
Info: NONBONDED TABLE SIZE: 769 POINTS
Info: REMOVING COM VELOCITY 0.0190033 -0.0142467 -0.0475806
Info: NONBONDED TABLE R-SQUARED SPACING: 0.0625
Info: NONBONDED TABLE SIZE: 769 POINTS
Info: READING EXTRA BONDS FILE 4/namdcph.sw.extrabonds
Info: LONG-RANGE LJ: APPLYING ANALYTICAL CORRECTIONS TO ENERGY AND PRESSURE
Info: LONG-RANGE LJ: AVERAGE A AND B COEFFICIENTS 70902 AND 74.5446
Info: STRUCTURE SUMMARY:
Info: 26522 ATOMS
Info: 17940 BONDS
Info: 10106 ANGLES
Info: 2284 DIHEDRALS
Info: 173 IMPROPERS
Info: 54 CROSSTERMS
Info: 0 EXCLUSIONS
Info: 26045 RIGID BONDS
Info: 53521 DEGREES OF FREEDOM
Info: 9011 HYDROGEN GROUPS
Info: 4 ATOMS IN LARGEST HYDROGEN GROUP
Info: 9011 MIGRATION GROUPS
Info: 4 ATOMS IN LARGEST MIGRATION GROUP
Info: TOTAL MASS = 161289 amu
Info: TOTAL CHARGE = 2 e
Info: MASS DENSITY = 1.02536 g/cm^3
Info: ATOM DENSITY = 0.101536 atoms/A^3
Info: ADDED 30321 IMPLICIT EXCLUSIONS
Info: NONBONDED TABLE R-SQUARED SPACING: 0.0625
Info: NONBONDED TABLE SIZE: 769 POINTS
Info: REMOVING COM VELOCITY 0.00604421 0.0308421 0.0731883
