Info: SIMULATION PARAMETERS:
Info: TIMESTEP               2
Info: NUMBER OF STEPS        0
Info: STEPS PER CYCLE        20
Info: PERIODIC CELL BASIS 1  44.256 0 0
Info: PERIODIC CELL BASIS 2  0 55.2372 0
Info: PERIODIC CELL BASIS 3  0 0 104.307
Info: PERIODIC CELL CENTER   0.236852 0.455951 2.74095
Info: WRAPPING WATERS AROUND PERIODIC BOUNDARIES ON OUTPUT.
Info: WRAPPING ALL CLUSTERS AROUND PERIODIC BOUNDARIES ON OUTPUT.
Info: FIRST LDB TIMESTEP     100
Info: LAST LDB TIMESTEP     -1
Info: HOM BACKGROUND SCALING 1
Info: PME BACKGROUND SCALING 1
Info: MIN ATOMS PER PATCH    40
Info: INITIAL TEMPERATURE    298
Info: CENTER OF MASS MOVING INITIALLY? NO
Info: DIELECTRIC             1
Info: EXCLUDE                SCALED ONE-FOUR
Info: 1-4 ELECTROSTATICS SCALED BY 1
Info: MODIFIED 1-4 VDW PARAMETERS WILL BE USED
Info: DCD FILENAME           13/Pre13_0.dcd
Info: DCD FREQUENCY          1000
Info: DCD FIRST STEP         1000
Info: DCD FILE WILL CONTAIN UNIT CELL DATA
Info: NO EXTENDED SYSTEM TRAJECTORY OUTPUT
Info: NO VELOCITY DCD OUTPUT
Info: NO FORCE DCD OUTPUT
Info: OUTPUT FILENAME        13/Pre13_0
Info: BINARY OUTPUT FILES WILL BE USED
Info: NO RESTART FILE
Info: SWITCHING ACTIVE
Info: VDW FORCE SWITCHING ACTIVE
Info: SWITCHING ON           10
Info: SWITCHING OFF          12
Info: PAIRLIST DISTANCE      14
Info: PAIRLIST SHRINK RATE   0.01
Info: PAIRLIST GROW RATE     0.01
Info: PAIRLIST TRIGGER       0.3
Info: PAIRLISTS PER CYCLE    2
Info: PAIRLISTS ENABLED
Info: MARGIN                 2
Info: HYDROGEN GROUP CUTOFF  2.5
Info: PATCH DIMENSION        18.5
Info: ENERGY OUTPUT STEPS    1000
Info: CROSSTERM ENERGY INCLUDED IN DIHEDRAL
Info: TIMING OUTPUT STEPS    10000
Info: THERMODYNAMIC INTEGRATION (TI) ON
Info: TI LAMBDA VALUE     0
Info: TI INTRA-ALCHEMICAL NON-BONDED INTERACTIONS WILL BE DECOUPLED
Info: TI INTRA-ALCHEMICAL BONDED INTERACTIONS WILL BE DECOUPLED
Info: TI VDW SHIFTING COEFFICIENT 0
Info: TI ELEC. ACTIVE FOR ANNIHILATED PARTICLES BETWEEN LAMBDA = 0 AND LAMBDA = 1
Info: TI ELEC. ACTIVE FOR EXNIHILATED PARTICLES BETWEEN LAMBDA = 0 AND LAMBDA = 1
Info: TI VDW ACTIVE FOR ANNIHILATED PARTICLES BETWEEN LAMBDA = 0 AND LAMBDA = 1
Info: TI VDW ACTIVE FOR EXNIHILATED PARTICLES BETWEEN LAMBDA = 0 AND LAMBDA = 1
Info: TI BOND ACTIVE FOR ANNIHILATED PARTICLES BETWEEN LAMBDA = 0 AND LAMBDA = 1
Info: TI BOND ACTIVE FOR EXNIHILATED PARTICLES BETWEEN LAMBDA = 0 AND LAMBDA = 1
Info: LANGEVIN DYNAMICS ACTIVE
Info: LANGEVIN TEMPERATURE   298
Info: LANGEVIN USING BBK INTEGRATOR
Info: LANGEVIN DAMPING COEFFICIENT IS 1 INVERSE PS
Info: LANGEVIN DYNAMICS NOT APPLIED TO HYDROGENS
Info: PARTICLE MESH EWALD (PME) ACTIVE
Info: PME TOLERANCE               1e-06
Info: PME EWALD COEFFICIENT       0.257952
Info: PME INTERPOLATION ORDER     4
Info: PME GRID DIMENSIONS         48 56 108
Info: PME MAXIMUM GRID SPACING    1
Info: FULL ELECTROSTATIC EVALUATION FREQUENCY      2
Info: USING VERLET I (r-RESPA) MTS SCHEME.
Info: C1 SPLITTING OF LONG RANGE ELECTROSTATICS
Info: PLACING ATOMS IN PATCHES BY HYDROGEN GROUPS
Info: RIGID BONDS TO HYDROGEN : ALL
Info:         ERROR TOLERANCE : 1e-08
Info:          MAX ITERATIONS : 100
Info: RIGID WATER USING SETTLE ALGORITHM
Info: RANDOM NUMBER SEED     1689292234
Info: USE HYDROGEN BONDS?    NO
Info: COORDINATE PDB         ../topology/preD950N.pdb
Info: STRUCTURE FILE         ../topology/preD950N.psf
Info: PARAMETER file: CHARMM format!
Info: PARAMETERS             ../../toppar/par_all36_carb.prm
Info: PARAMETERS             ../../toppar/par_all36_cgenff.prm
Info: PARAMETERS             ../../toppar/par_all36_lipid.prm
Info: PARAMETERS             ../../toppar/par_all36_na.prm
Info: PARAMETERS             ../../toppar/par_all36_prot.prm
Info: PARAMETERS             ../../toppar/par_all36_solvent.prm
Info: PARAMETERS             ../../toppar/par_cph36_prot.prm
Info: PARAMETERS             ../../toppar/toppar_all36_carb_glycopeptide.str
Info: PARAMETERS             ../../toppar/toppar_water_ions_namd.str
Info: USING ARITHMETIC MEAN TO COMBINE L-J SIGMA PARAMETERS
Info: SKIPPING rtf SECTION IN STREAM FILE
Info: SKIPPING rtf SECTION IN STREAM FILE
Info: SUMMARY OF PARAMETERS:
Info: 925 BONDS
Info: 2696 ANGLES
Info: 6608 DIHEDRAL
Info: 195 IMPROPER
Info: 6 CROSSTERM
Info: 366 VDW
Info: 6 VDW_PAIRS
Info: 0 NBTHOLE_PAIRS
Info: READING EXTRA BONDS FILE 13/namdcph.sw.extrabonds
Info: To read alchdata from file: coordinate pdb file (default)
Info: To read alchflag data from column: 5
Info: LONG-RANGE LJ: APPLYING ANALYTICAL CORRECTIONS TO ENERGY AND PRESSURE
Info: LONG-RANGE LJ: AVERAGE A0 AND B0 COEFFICIENTS 70944.9 AND 74.5871
Info: LONG-RANGE LJ: AVERAGE A1 AND B1 COEFFICIENTS 70944.9 AND 74.5871
Info: STRUCTURE SUMMARY:
Info: 25807 ATOMS
Info: 17460 BONDS
Info: 9855 ANGLES
Info: 2254 DIHEDRALS
Info: 177 IMPROPERS
Info: 54 CROSSTERMS
Info: 0 EXCLUSIONS
Info: 25336 RIGID BONDS
Info: ALCH: 0 ATOMS TO DISAPPEAR IN FINAL STATE
Info: ALCH: 0 ATOMS TO APPEAR IN FINAL STATE
Info: 52085 DEGREES OF FREEDOM
Info: 8771 HYDROGEN GROUPS
Info: 4 ATOMS IN LARGEST HYDROGEN GROUP
Info: 8771 MIGRATION GROUPS
Info: 4 ATOMS IN LARGEST MIGRATION GROUP
Info: TOTAL MASS = 156962 amu
Info: TOTAL CHARGE = 4.35859e-07 e
Info: MASS DENSITY = 1.02219 g/cm^3
Info: ATOM DENSITY = 0.101209 atoms/A^3
Info: ADDED 29563 IMPLICIT EXCLUSIONS
Info: NONBONDED TABLE R-SQUARED SPACING: 0.0625
Info: NONBONDED TABLE SIZE: 769 POINTS
Info: REMOVING COM VELOCITY -0.024116 -0.0287129 0.0320156
TCL: Setting parameter alchLambdaFreq to 1
Info: NONBONDED TABLE R-SQUARED SPACING: 0.0625
Info: NONBONDED TABLE SIZE: 769 POINTS
TCL: Setting parameter alch to off
Info: NONBONDED TABLE R-SQUARED SPACING: 0.0625
Info: NONBONDED TABLE SIZE: 769 POINTS
TCL: namdcph) initializing constant pH PSF...
TCL: WARNING! Building new atom PP1:918:HE1 with unknown mass.
TCL:          This may cause issues, for example, with mass repartitioning.
TCL: WARNING! Building new atom PP1:918:HE2 with unknown mass.
TCL:          This may cause issues, for example, with mass repartitioning.
TCL: WARNING! Building new atom PP1:936:HD1 with unknown mass.
TCL:          This may cause issues, for example, with mass repartitioning.
TCL: WARNING! Building new atom PP1:936:HD2 with unknown mass.
TCL:          This may cause issues, for example, with mass repartitioning.
TCL: cphpsfgen) creating new alchemical side chain for PP1:918:GLU
TCL: cphpsfgen) merging alchemical sidechains for PP1:918:GLU
TCL: cphpsfgen) creating new alchemical side chain for PP1:921:LYS
TCL: cphpsfgen) merging alchemical sidechains for PP1:921:LYS
TCL: cphpsfgen) creating new alchemical side chain for PP1:933:LYS
TCL: cphpsfgen) merging alchemical sidechains for PP1:933:LYS
TCL: cphpsfgen) creating new alchemical side chain for PP1:936:ASP
TCL: cphpsfgen) merging alchemical sidechains for PP1:936:ASP
TCL: cphpsfgen) creating new alchemical side chain for PP1:947:LYS
TCL: cphpsfgen) merging alchemical sidechains for PP1:947:LYS
TCL: cphpsfgen) creating new alchemical side chain for PP1:964:LYS
TCL: cphpsfgen) merging alchemical sidechains for PP1:964:LYS
TCL: namdcph) ***************************************
TCL: namdcph) CONSTANT pH MD ACTIVE
TCL: namdcph) SYSTEM pH 13
TCL: namdcph) CONSTANT pH CONFIGURATION FILE(S)
TCL: namdcph) ../../toppar/conf_cph36_prot.json
TCL: namdcph) NONEQUILIBRIUM SWITCH PARAMETERS:
TCL: namdcph) ALCHEMICAL FORCE CONSTANT 100.0 kcal/mol-A^2
TCL: namdcph) neMD/MC CRITERION TEMPERATURE 298.0
TCL: namdcph) TEMPORARY FILE INFORMATION:
TCL: namdcph) cpH TOPOLOGY FILE BASENAME 13/namdcph.md
TCL: namdcph) neMD/MC TRAJECTORY BASENAME 13/namdcph.sw
TCL: namdcph) ***************************************
TCL: namdcph) ***************************************
TCL: namdcph) TITRATABLE RESIDUE DEFINITIONS:
TCL: namdcph) HIS ASP GLU CYS LYS
TCL: namdcph) TITRATABLE SYSTEM SUMMARY:
TCL: namdcph) 6 RESIDUE(S)
TCL: namdcph) 16 PROTONATION SITE(S)
TCL: namdcph) ***************************************
TCL: namdcph) segid:resid:resname : state : pKai
TCL: namdcph) PP1:918:GLU         :     D : 5.90
TCL: namdcph) PP1:921:LYS         :     1 : 9.77
TCL: namdcph) PP1:933:LYS         :     2 : 9.54
TCL: namdcph) PP1:936:ASP         :     D : 5.26
TCL: namdcph) PP1:947:LYS         :     1 : 9.83
TCL: namdcph) PP1:964:LYS         :     1 : 9.68
TCL: namdcph) ***************************************
TCL: namdcph) *************************************************
TCL: namdcph) CONSTANT pH neMD/MC MOVES:
TCL: namdcph) MAX. ATTEMPTS PER CYCLE: 1
TCL: namdcph) ONE RESIDUE MOVES
TCL: namdcph) move label     : numsteps   weight
TCL: namdcph) PP1:918:GLU    :    75000     1.00
TCL: namdcph) PP1:921:LYS    :    75000     1.00
TCL: namdcph) PP1:933:LYS    :    75000     1.00
TCL: namdcph) PP1:936:ASP    :    75000     1.00
TCL: namdcph) PP1:947:LYS    :    75000     1.00
TCL: namdcph) PP1:964:LYS    :    75000     1.00
TCL: namdcph) *************************************************
TCL: namdcph) clearing extraBondsFile 13/namdcph.sw.extrabonds
TCL: Reloading molecular structure from file 13/namdcph.md.psf and pdb file 13/namdcph.md.pdb
Info: READING EXTRA BONDS FILE 13/namdcph.sw.extrabonds
Info: LONG-RANGE LJ: APPLYING ANALYTICAL CORRECTIONS TO ENERGY AND PRESSURE
Info: LONG-RANGE LJ: AVERAGE A AND B COEFFICIENTS 70966.8 AND 74.6091
Info: STRUCTURE SUMMARY:
Info: 25811 ATOMS
Info: 17464 BONDS
Info: 9855 ANGLES
Info: 2262 DIHEDRALS
Info: 181 IMPROPERS
Info: 54 CROSSTERMS
Info: 0 EXCLUSIONS
Info: 25340 RIGID BONDS
Info: 52093 DEGREES OF FREEDOM
Info: 8771 HYDROGEN GROUPS
Info: 4 ATOMS IN LARGEST HYDROGEN GROUP
Info: 8771 MIGRATION GROUPS
Info: 4 ATOMS IN LARGEST MIGRATION GROUP
Info: TOTAL MASS = 156966 amu
Info: TOTAL CHARGE = -4 e
Info: MASS DENSITY = 1.02222 g/cm^3
Info: ATOM DENSITY = 0.101224 atoms/A^3
Info: ADDED 29579 IMPLICIT EXCLUSIONS
Info: NONBONDED TABLE R-SQUARED SPACING: 0.0625
Info: NONBONDED TABLE SIZE: 769 POINTS
TCL: Reinitializing atom data from files with basename 13/namdcph.md
Info: REMOVING COM VELOCITY 8.02578e-05 0.0022604 -0.000972903
TCL: Minimizing for 300 steps
ETITLE: TS BOND ANGLE DIHED IMPRP ELECT VDW BOUNDARY MISC KINETIC TOTAL TEMP POTENTIAL TOTAL3 TEMPAVG PRESSURE GPRESSURE VOLUME PRESSAVG GPRESSAVG
ENERGY: 0 51.9413 101.9702 448.8494 1289.6828 -79841.4914 99999999999.9999 0.0000 0.0000 0.0000 99999999999.9999 0.0000 99999999999.9999 99999999999.9999 0.0000 99999999999.9999 99999999999.9999 254987.8783 99999999999.9999 99999999999.9999
ENERGY: 60 82.4630 248.4871 441.0551 95.8881 -91941.2311 13025.3366 0.0000 0.0000 0.0000 -78048.0011 0.0000 -78048.0011 -78048.0011 0.0000 25688.6728 7590.2197 254987.8783 25688.6728 7590.2197
ENERGY: 120 58.6820 184.2623 439.7279 26.3506 -96371.8236 10692.6139 0.0000 0.0000 0.0000 -84970.1869 0.0000 -84970.1869 -84970.1869 0.0000 22453.5995 3478.4235 254987.8783 22453.5995 3478.4235
ENERGY: 180 276.0224 209.1884 438.3952 24.0514 -100030.0458 9367.9062 0.0000 0.0000 0.0000 -89714.4821 0.0000 -89714.4821 -89714.4821 0.0000 20541.4874 855.9670 254987.8783 20541.4874 855.9670
ENERGY: 240 63.2312 197.7662 435.2678 42.9252 -103330.0008 8815.7539 0.0000 0.0000 0.0000 -93775.0565 0.0000 -93775.0565 -93775.0565 0.0000 19591.6228 19553.9693 254987.8783 19591.6228 19553.9693
ENERGY: 300 118.4016 214.9288 434.5202 21.2796 -104624.2562 8712.6846 0.0000 0.0000 0.0000 -95122.4414 0.0000 -95122.4414 -95122.4414 0.0000 19457.0561 19374.7517 254987.8783 19457.0561 19374.7517
TCL: Setting parameter firstTimeStep to 0
TCL: Running for 500 steps
ETITLE: TS BOND ANGLE DIHED IMPRP ELECT VDW BOUNDARY MISC KINETIC TOTAL TEMP POTENTIAL TOTAL3 TEMPAVG PRESSURE GPRESSURE VOLUME PRESSAVG GPRESSAVG
ENERGY: 0 118.4016 214.9288 434.5202 21.2796 -104624.2562 8712.6846 0.0000 0.0000 15534.8942 -79587.5471 300.1368 -95122.4414 -79613.3359 300.1368 -2547.1458 -2487.5660 254987.8783 -2547.1458 -2487.5660
TCL: namdcph) Proposal rejected.
TCL: Running for 500 steps without repeating first step
ETITLE: TS BOND ANGLE DIHED IMPRP ELECT VDW BOUNDARY MISC KINETIC TOTAL TEMP POTENTIAL TOTAL3 TEMPAVG PRESSURE GPRESSURE VOLUME PRESSAVG GPRESSAVG
ENERGY: 1000 141.5548 453.8381 485.5396 29.4874 -100329.9954 9245.6645 0.0000 0.0000 13623.5086 -76350.4023 263.2085 -89973.9109 -76316.9229 247.8680 -385.9188 -351.0194 254987.8783 -429.0226 -428.9344
TCL: namdcph) Proposal rejected.
TCL: Running for 500 steps without repeating first step
TCL: namdcph) Proposal rejected.
TCL: Running for 500 steps without repeating first step
ETITLE: TS BOND ANGLE DIHED IMPRP ELECT VDW BOUNDARY MISC KINETIC TOTAL TEMP POTENTIAL TOTAL3 TEMPAVG PRESSURE GPRESSURE VOLUME PRESSAVG GPRESSAVG
ENERGY: 2000 164.6500 463.5253 483.0904 32.8504 -98807.9218 8833.7070 0.0000 0.0000 14403.2913 -74426.8075 278.2741 -88830.0987 -74391.9928 272.1658 -464.1835 -425.9801 254987.8783 -432.4871 -432.2535
TCL: namdcph) Proposal rejected.
TCL: Running for 500 steps without repeating first step
TCL: namdcph) Proposal rejected.
TCL: Running for 500 steps without repeating first step
ETITLE: TS BOND ANGLE DIHED IMPRP ELECT VDW BOUNDARY MISC KINETIC TOTAL TEMP POTENTIAL TOTAL3 TEMPAVG PRESSURE GPRESSURE VOLUME PRESSAVG GPRESSAVG
ENERGY: 3000 139.1415 475.6223 489.4432 31.8168 -97637.2870 8592.3865 0.0000 0.0000 14777.3036 -73131.5731 285.5001 -87908.8767 -73097.6607 283.0277 -350.0277 -307.7949 254987.8783 -332.7395 -332.8424
TCL: namdcph) Proposal rejected.
TCL: Running for 500 steps without repeating first step
TCL: namdcph) Proposal rejected.
TCL: Running for 500 steps without repeating first step
ETITLE: TS BOND ANGLE DIHED IMPRP ELECT VDW BOUNDARY MISC KINETIC TOTAL TEMP POTENTIAL TOTAL3 TEMPAVG PRESSURE GPRESSURE VOLUME PRESSAVG GPRESSAVG
ENERGY: 4000 153.9261 449.6354 473.0519 33.5895 -97018.0937 8396.4673 0.0000 0.0000 15021.5080 -72489.9155 290.2181 -87511.4235 -72454.4523 289.0413 -442.5081 -405.8434 254987.8783 -264.8915 -264.9386
TCL: namdcph) Proposal rejected.
TCL: Running for 500 steps without repeating first step
TCL: namdcph) Proposal rejected.
TCL: Running for 500 steps without repeating first step
ETITLE: TS BOND ANGLE DIHED IMPRP ELECT VDW BOUNDARY MISC KINETIC TOTAL TEMP POTENTIAL TOTAL3 TEMPAVG PRESSURE GPRESSURE VOLUME PRESSAVG GPRESSAVG
ENERGY: 5000 148.1028 470.0078 503.5116 34.5845 -96862.8389 8382.8471 0.0000 0.0000 15275.8733 -72047.9118 295.1325 -87323.7852 -72010.4207 293.0200 -234.8741 -202.2473 254987.8783 -228.7031 -228.7000
TCL: namdcph) Proposal rejected.
TCL: Running for 500 steps without repeating first step
TCL: namdcph) Proposal rejected.
TCL: Running for 500 steps without repeating first step
ETITLE: TS BOND ANGLE DIHED IMPRP ELECT VDW BOUNDARY MISC KINETIC TOTAL TEMP POTENTIAL TOTAL3 TEMPAVG PRESSURE GPRESSURE VOLUME PRESSAVG GPRESSAVG
ENERGY: 6000 157.3547 503.5646 496.6657 34.5495 -97127.8819 8646.3075 0.0000 0.0000 15201.7130 -72087.7268 293.6997 -87289.4398 -72056.0111 295.0247 -49.4670 -24.5050 254987.8783 -165.4260 -165.3643
TCL: namdcph) Proposal rejected.
TCL: Running for 500 steps without repeating first step
TCL: namdcph) Proposal rejected.
TCL: Running for 500 steps without repeating first step
ETITLE: TS BOND ANGLE DIHED IMPRP ELECT VDW BOUNDARY MISC KINETIC TOTAL TEMP POTENTIAL TOTAL3 TEMPAVG PRESSURE GPRESSURE VOLUME PRESSAVG GPRESSAVG
ENERGY: 7000 164.7968 493.2243 485.8244 29.2254 -96708.5830 8467.3223 0.0000 0.0000 15254.5409 -71813.6490 294.7204 -87068.1899 -71780.7533 294.1621 -202.2381 -168.9242 254987.8783 -233.1559 -233.1651
TCL: namdcph) Proposal rejected.
TCL: Running for 500 steps without repeating first step
TCL: namdcph) Proposal rejected.
TCL: Running for 500 steps without repeating first step
ETITLE: TS BOND ANGLE DIHED IMPRP ELECT VDW BOUNDARY MISC KINETIC TOTAL TEMP POTENTIAL TOTAL3 TEMPAVG PRESSURE GPRESSURE VOLUME PRESSAVG GPRESSAVG
ENERGY: 8000 151.6172 480.5162 477.2573 28.5422 -96726.5219 8401.3888 0.0000 0.0000 15333.8325 -71853.3677 296.2523 -87187.2002 -71818.0602 296.5056 -212.9173 -176.1761 254987.8783 -139.6148 -139.6161
TCL: namdcph) Proposal rejected.
TCL: Running for 500 steps without repeating first step
TCL: namdcph) Proposal rejected.
TCL: Running for 500 steps without repeating first step
ETITLE: TS BOND ANGLE DIHED IMPRP ELECT VDW BOUNDARY MISC KINETIC TOTAL TEMP POTENTIAL TOTAL3 TEMPAVG PRESSURE GPRESSURE VOLUME PRESSAVG GPRESSAVG
ENERGY: 9000 156.2530 505.3516 480.2861 29.1952 -96977.0696 8567.8034 0.0000 0.0000 15353.2781 -71884.9022 296.6280 -87238.1803 -71846.3254 295.7250 -93.8571 -61.2443 254987.8783 -179.7458 -179.6334
TCL: namdcph) Proposal rejected.
TCL: Running for 500 steps without repeating first step
TCL: namdcph) Proposal rejected.
TCL: Running for 500 steps without repeating first step
ETITLE: TS BOND ANGLE DIHED IMPRP ELECT VDW BOUNDARY MISC KINETIC TOTAL TEMP POTENTIAL TOTAL3 TEMPAVG PRESSURE GPRESSURE VOLUME PRESSAVG GPRESSAVG
ENERGY: 10000 167.2421 490.3893 486.4138 40.5337 -96578.5069 8378.6321 0.0000 0.0000 15444.1875 -71571.1084 298.3844 -87015.2959 -71528.7663 296.7047 -255.8899 -219.2284 254987.8783 -239.7685 -239.7079
TCL: namdcph) Proposal rejected.
TCL: Running for 500 steps without repeating first step
TCL: namdcph) Proposal rejected.
TCL: Running for 500 steps without repeating first step
ETITLE: TS BOND ANGLE DIHED IMPRP ELECT VDW BOUNDARY MISC KINETIC TOTAL TEMP POTENTIAL TOTAL3 TEMPAVG PRESSURE GPRESSURE VOLUME PRESSAVG GPRESSAVG
ENERGY: 11000 189.6840 509.2004 480.9359 33.8550 -95989.5339 8172.9076 0.0000 0.0000 15276.3362 -71326.6149 295.1415 -86602.9511 -71288.8816 298.4347 -453.5626 -415.3356 254987.8783 -227.2719 -227.2216
TCL: namdcph) Proposal rejected.
TCL: Running for 500 steps without repeating first step
TCL: namdcph) Proposal rejected.
TCL: Running for 500 steps without repeating first step
ETITLE: TS BOND ANGLE DIHED IMPRP ELECT VDW BOUNDARY MISC KINETIC TOTAL TEMP POTENTIAL TOTAL3 TEMPAVG PRESSURE GPRESSURE VOLUME PRESSAVG GPRESSAVG
ENERGY: 12000 157.5150 506.9963 494.4252 35.6943 -96331.1276 8272.2883 0.0000 0.0000 15635.8525 -71228.3560 302.0874 -86864.2085 -71191.2390 299.6220 -276.0991 -238.0994 254987.8783 -197.8096 -197.8253
TCL: namdcph) Proposal rejected.
TCL: Running for 500 steps without repeating first step
TCL: namdcph) Proposal rejected.
TCL: Running for 500 steps without repeating first step
ETITLE: TS BOND ANGLE DIHED IMPRP ELECT VDW BOUNDARY MISC KINETIC TOTAL TEMP POTENTIAL TOTAL3 TEMPAVG PRESSURE GPRESSURE VOLUME PRESSAVG GPRESSAVG
ENERGY: 13000 154.7972 489.7286 491.1022 25.8598 -96117.7010 8210.2611 0.0000 0.0000 15496.7401 -71249.2119 299.3997 -86745.9520 -71208.3035 299.9591 -233.4773 -201.8772 254987.8783 -144.9234 -144.9665
TCL: namdcph) Proposal rejected.
TCL: Running for 500 steps without repeating first step
TCL: namdcph) Proposal rejected.
TCL: Running for 500 steps without repeating first step
ETITLE: TS BOND ANGLE DIHED IMPRP ELECT VDW BOUNDARY MISC KINETIC TOTAL TEMP POTENTIAL TOTAL3 TEMPAVG PRESSURE GPRESSURE VOLUME PRESSAVG GPRESSAVG
ENERGY: 14000 149.7406 490.1043 488.2939 46.3388 -96348.2884 8298.5906 0.0000 0.0000 15362.4511 -71512.7691 296.8052 -86875.2202 -71472.3057 299.0853 -237.9946 -203.2278 254987.8783 -129.5212 -129.4873
TCL: namdcph) Proposal rejected.
TCL: Running for 500 steps without repeating first step
TCL: namdcph) Proposal rejected.
TCL: Running for 500 steps without repeating first step
ETITLE: TS BOND ANGLE DIHED IMPRP ELECT VDW BOUNDARY MISC KINETIC TOTAL TEMP POTENTIAL TOTAL3 TEMPAVG PRESSURE GPRESSURE VOLUME PRESSAVG GPRESSAVG
ENERGY: 15000 156.8485 507.0253 498.2910 35.2261 -96306.9875 8183.8089 0.0000 0.0000 15367.5190 -71558.2688 296.9031 -86925.7878 -71517.0033 297.0955 -321.3384 -286.5349 254987.8783 -183.6112 -183.5218
TCL: namdcph) Proposal rejected.
TCL: Running for 500 steps without repeating first step
TCL: namdcph) Proposal rejected.
TCL: Running for 500 steps without repeating first step
ETITLE: TS BOND ANGLE DIHED IMPRP ELECT VDW BOUNDARY MISC KINETIC TOTAL TEMP POTENTIAL TOTAL3 TEMPAVG PRESSURE GPRESSURE VOLUME PRESSAVG GPRESSAVG
ENERGY: 16000 165.6638 472.8177 471.4656 23.9263 -96601.0576 8436.2637 0.0000 0.0000 15427.1116 -71603.8089 298.0545 -87030.9205 -71566.5122 297.0011 -154.0815 -119.7298 254987.8783 -243.1566 -243.1711
TCL: namdcph) Proposal rejected.
TCL: Running for 500 steps without repeating first step
TCL: namdcph) Proposal rejected.
TCL: Running for 500 steps without repeating first step
ETITLE: TS BOND ANGLE DIHED IMPRP ELECT VDW BOUNDARY MISC KINETIC TOTAL TEMP POTENTIAL TOTAL3 TEMPAVG PRESSURE GPRESSURE VOLUME PRESSAVG GPRESSAVG
ENERGY: 17000 153.4838 470.0689 486.9984 32.0022 -96772.0598 8536.7211 0.0000 0.0000 15397.0623 -71695.7231 297.4739 -87092.7854 -71657.0582 296.8789 -55.5129 -21.7980 254987.8783 -200.0145 -200.0192
TCL: namdcph) Proposal rejected.
TCL: Running for 500 steps without repeating first step
TCL: namdcph) Proposal rejected.
TCL: Running for 500 steps without repeating first step
ETITLE: TS BOND ANGLE DIHED IMPRP ELECT VDW BOUNDARY MISC KINETIC TOTAL TEMP POTENTIAL TOTAL3 TEMPAVG PRESSURE GPRESSURE VOLUME PRESSAVG GPRESSAVG
ENERGY: 18000 161.0843 500.1814 486.3429 35.1171 -96277.0312 8322.8829 0.0000 0.0000 15345.7942 -71425.6284 296.4834 -86771.4226 -71384.8617 297.5686 -190.6812 -153.1139 254987.8783 -186.6834 -186.6815
TCL: namdcph) Proposal rejected.
TCL: Running for 500 steps without repeating first step
TCL: namdcph) Proposal rejected.
TCL: Running for 500 steps without repeating first step
ETITLE: TS BOND ANGLE DIHED IMPRP ELECT VDW BOUNDARY MISC KINETIC TOTAL TEMP POTENTIAL TOTAL3 TEMPAVG PRESSURE GPRESSURE VOLUME PRESSAVG GPRESSAVG
ENERGY: 19000 176.4699 482.3365 484.8463 39.6736 -96572.3461 8424.5037 0.0000 0.0000 15251.4423 -71713.0739 294.6605 -86964.5162 -71678.0587 297.2906 -85.7441 -49.7747 254987.8783 -145.1557 -145.3319
TCL: namdcph) Proposal rejected.
TCL: Running for 500 steps without repeating first step
TCL: namdcph) Proposal rejected.
TCL: Running for 500 steps without repeating first step
ETITLE: TS BOND ANGLE DIHED IMPRP ELECT VDW BOUNDARY MISC KINETIC TOTAL TEMP POTENTIAL TOTAL3 TEMPAVG PRESSURE GPRESSURE VOLUME PRESSAVG GPRESSAVG
ENERGY: 20000 161.9987 481.9579 487.0492 33.5477 -96603.9492 8377.8431 0.0000 0.0000 15363.2171 -71698.3356 296.8200 -87061.5527 -71662.7505 296.6720 -223.5230 -197.7289 254987.8783 -160.8791 -160.9178
TCL: namdcph) Proposal rejected.
TCL: Running for 500 steps without repeating first step
TCL: namdcph) Proposal rejected.
TCL: Running for 500 steps without repeating first step
ETITLE: TS BOND ANGLE DIHED IMPRP ELECT VDW BOUNDARY MISC KINETIC TOTAL TEMP POTENTIAL TOTAL3 TEMPAVG PRESSURE GPRESSURE VOLUME PRESSAVG GPRESSAVG
ENERGY: 21000 161.8349 486.8681 483.7205 37.5000 -96660.5443 8449.3830 0.0000 0.0000 15389.3736 -71651.8643 297.3254 -87041.2379 -71616.3843 296.8379 -118.0571 -86.2054 254987.8783 -197.0521 -197.0309
TCL: namdcph) Proposal rejected.
TCL: Running for 500 steps without repeating first step
TCL: namdcph) Proposal rejected.
TCL: Running for 500 steps without repeating first step
ETITLE: TS BOND ANGLE DIHED IMPRP ELECT VDW BOUNDARY MISC KINETIC TOTAL TEMP POTENTIAL TOTAL3 TEMPAVG PRESSURE GPRESSURE VOLUME PRESSAVG GPRESSAVG
ENERGY: 22000 148.3765 527.4078 483.0567 33.4015 -96542.9467 8421.9109 0.0000 0.0000 15398.7949 -71529.9984 297.5074 -86928.7933 -71491.5609 297.1508 -89.6195 -60.8947 254987.8783 -157.3368 -157.3618
TCL: namdcph) Proposal rejected.
TCL: Running for 500 steps without repeating first step
TCL: namdcph) Proposal rejected.
TCL: Running for 500 steps without repeating first step
ETITLE: TS BOND ANGLE DIHED IMPRP ELECT VDW BOUNDARY MISC KINETIC TOTAL TEMP POTENTIAL TOTAL3 TEMPAVG PRESSURE GPRESSURE VOLUME PRESSAVG GPRESSAVG
ENERGY: 23000 174.5314 491.7450 483.1628 31.6754 -96551.1152 8461.9091 0.0000 0.0000 15332.4228 -71575.6686 296.2251 -86908.0915 -71540.3317 296.7962 -103.4453 -62.9618 254987.8783 -146.5749 -146.5442
TCL: namdcph) Proposal rejected.
TCL: Running for 500 steps without repeating first step
TCL: namdcph) Proposal rejected.
TCL: Running for 500 steps without repeating first step
ETITLE: TS BOND ANGLE DIHED IMPRP ELECT VDW BOUNDARY MISC KINETIC TOTAL TEMP POTENTIAL TOTAL3 TEMPAVG PRESSURE GPRESSURE VOLUME PRESSAVG GPRESSAVG
ENERGY: 24000 168.4230 510.9867 477.6719 32.7798 -96323.0391 8362.0001 0.0000 0.0000 15474.2386 -71296.9390 298.9650 -86771.1776 -71256.3265 297.8913 -59.5577 -28.0445 254987.8783 -170.5615 -170.6324
TCL: namdcph) Proposal rejected.
TCL: Running for 500 steps without repeating first step
TCL: namdcph) Proposal rejected.
TCL: Running for 500 steps without repeating first step
ETITLE: TS BOND ANGLE DIHED IMPRP ELECT VDW BOUNDARY MISC KINETIC TOTAL TEMP POTENTIAL TOTAL3 TEMPAVG PRESSURE GPRESSURE VOLUME PRESSAVG GPRESSAVG
ENERGY: 25000 169.0421 504.8874 459.3373 29.0551 -96244.7065 8388.5492 0.0000 0.0000 15388.5732 -71305.2623 297.3099 -86693.8354 -71269.3055 298.5333 -131.5737 -105.0608 254987.8783 -191.5066 -191.4626
TCL: namdcph) Proposal rejected.
TCL: Running for 500 steps without repeating first step
TCL: namdcph) Proposal rejected.
TCL: Running for 500 steps without repeating first step
ETITLE: TS BOND ANGLE DIHED IMPRP ELECT VDW BOUNDARY MISC KINETIC TOTAL TEMP POTENTIAL TOTAL3 TEMPAVG PRESSURE GPRESSURE VOLUME PRESSAVG GPRESSAVG
ENERGY: 26000 165.3006 462.9056 491.6458 31.6713 -96466.1201 8419.8686 0.0000 0.0000 15507.6983 -71387.0299 299.6114 -86894.7282 -71348.4832 299.2142 -246.2475 -214.5494 254987.8783 -162.8763 -162.9310
TCL: namdcph) Proposal rejected.
TCL: Running for 500 steps without repeating first step
TCL: namdcph) Proposal rejected.
TCL: Running for 500 steps without repeating first step
ETITLE: TS BOND ANGLE DIHED IMPRP ELECT VDW BOUNDARY MISC KINETIC TOTAL TEMP POTENTIAL TOTAL3 TEMPAVG PRESSURE GPRESSURE VOLUME PRESSAVG GPRESSAVG
ENERGY: 27000 153.7998 483.7503 496.8003 31.3974 -96451.4842 8303.9126 0.0000 0.0000 15297.3143 -71684.5096 295.5468 -86981.8238 -71645.7358 297.6258 -257.1326 -220.5617 254987.8783 -109.8419 -109.7917
TCL: namdcph) Proposal rejected.
TCL: Running for 500 steps without repeating first step
TCL: namdcph) Proposal rejected.
TCL: Running for 500 steps without repeating first step
ETITLE: TS BOND ANGLE DIHED IMPRP ELECT VDW BOUNDARY MISC KINETIC TOTAL TEMP POTENTIAL TOTAL3 TEMPAVG PRESSURE GPRESSURE VOLUME PRESSAVG GPRESSAVG
ENERGY: 28000 166.4332 466.8039 476.7453 36.1454 -96704.3606 8474.8536 0.0000 0.0000 15582.2553 -71501.1240 301.0519 -87083.3793 -71461.5405 296.6311 -218.5826 -186.1261 254987.8783 -200.4922 -200.6480
TCL: namdcph) Proposal rejected.
TCL: Running for 500 steps without repeating first step
TCL: namdcph) Proposal rejected.
TCL: Running for 500 steps without repeating first step
ETITLE: TS BOND ANGLE DIHED IMPRP ELECT VDW BOUNDARY MISC KINETIC TOTAL TEMP POTENTIAL TOTAL3 TEMPAVG PRESSURE GPRESSURE VOLUME PRESSAVG GPRESSAVG
ENERGY: 29000 159.7804 481.2459 476.7527 30.9943 -96428.7567 8534.7914 0.0000 0.0000 15357.3843 -71387.8077 296.7073 -86745.1920 -71348.8450 298.4542 23.0452 54.7633 254987.8783 -144.0978 -144.1133
TCL: namdcph) Proposal rejected.
TCL: Running for 500 steps without repeating first step
TCL: namdcph) Proposal rejected.
TCL: Running for 500 steps without repeating first step
ETITLE: TS BOND ANGLE DIHED IMPRP ELECT VDW BOUNDARY MISC KINETIC TOTAL TEMP POTENTIAL TOTAL3 TEMPAVG PRESSURE GPRESSURE VOLUME PRESSAVG GPRESSAVG
ENERGY: 30000 161.7570 461.1764 467.6742 28.8487 -96808.6544 8511.4837 0.0000 0.0000 15411.0259 -71766.6886 297.7437 -87177.7144 -71738.6977 297.5957 -161.9704 -132.9161 254987.8783 -169.4520 -169.4164
TCL: namdcph) Proposal rejected.
TCL: Running for 500 steps without repeating first step
TCL: namdcph) Proposal rejected.
TCL: Running for 500 steps without repeating first step
ETITLE: TS BOND ANGLE DIHED IMPRP ELECT VDW BOUNDARY MISC KINETIC TOTAL TEMP POTENTIAL TOTAL3 TEMPAVG PRESSURE GPRESSURE VOLUME PRESSAVG GPRESSAVG
ENERGY: 31000 137.4673 481.6233 478.7206 29.2724 -96545.0934 8420.5373 0.0000 0.0000 15454.9182 -71542.5544 298.5917 -86997.4726 -71504.1911 296.6571 -106.1714 -65.4922 254987.8783 -178.3792 -178.3787
TCL: namdcph) Proposal rejected.
TCL: Running for 500 steps without repeating first step
TCL: namdcph) Proposal rejected.
TCL: Running for 500 steps without repeating first step
ETITLE: TS BOND ANGLE DIHED IMPRP ELECT VDW BOUNDARY MISC KINETIC TOTAL TEMP POTENTIAL TOTAL3 TEMPAVG PRESSURE GPRESSURE VOLUME PRESSAVG GPRESSAVG
ENERGY: 32000 170.7200 483.1572 481.0849 31.0266 -96447.5142 8269.1956 0.0000 0.0000 15385.6444 -71626.6856 297.2533 -87012.3299 -71594.3538 297.6169 -372.0445 -339.0903 254987.8783 -224.8790 -224.8925
TCL: namdcph) Proposal rejected.
TCL: Running for 500 steps without repeating first step
TCL: namdcph) Proposal rejected.
TCL: Running for 500 steps without repeating first step
ETITLE: TS BOND ANGLE DIHED IMPRP ELECT VDW BOUNDARY MISC KINETIC TOTAL TEMP POTENTIAL TOTAL3 TEMPAVG PRESSURE GPRESSURE VOLUME PRESSAVG GPRESSAVG
ENERGY: 33000 149.5131 478.4589 469.3356 30.3668 -96356.5877 8161.1568 0.0000 0.0000 15186.2686 -71881.4879 293.4013 -87067.7565 -71846.1377 296.3321 -309.0748 -271.6469 254987.8783 -214.9137 -214.8384
TCL: namdcph) Proposal rejected.
TCL: Running for 500 steps without repeating first step
TCL: namdcph) Proposal rejected.
TCL: Running for 500 steps without repeating first step
ETITLE: TS BOND ANGLE DIHED IMPRP ELECT VDW BOUNDARY MISC KINETIC TOTAL TEMP POTENTIAL TOTAL3 TEMPAVG PRESSURE GPRESSURE VOLUME PRESSAVG GPRESSAVG
ENERGY: 34000 190.9267 458.6350 491.6090 31.0818 -96535.9022 8369.7383 0.0000 0.0000 15434.5123 -71559.3991 298.1975 -86993.9114 -71519.8196 295.2725 -262.9866 -230.4167 254987.8783 -203.5487 -203.6554
TCL: namdcph) Proposal rejected.
TCL: Running for 500 steps without repeating first step
TCL: namdcph) Proposal rejected.
TCL: Running for 500 steps without repeating first step
ETITLE: TS BOND ANGLE DIHED IMPRP ELECT VDW BOUNDARY MISC KINETIC TOTAL TEMP POTENTIAL TOTAL3 TEMPAVG PRESSURE GPRESSURE VOLUME PRESSAVG GPRESSAVG
ENERGY: 35000 159.2610 463.1746 490.3688 34.6017 -96287.3770 8218.3677 0.0000 0.0000 15396.8122 -71524.7909 297.4691 -86921.6031 -71491.4806 296.7242 -306.4486 -280.4556 254987.8783 -213.7569 -213.7647
TCL: namdcph) Proposal rejected.
TCL: Running for 500 steps without repeating first step
TCL: namdcph) Proposal rejected.
TCL: Running for 500 steps without repeating first step
ETITLE: TS BOND ANGLE DIHED IMPRP ELECT VDW BOUNDARY MISC KINETIC TOTAL TEMP POTENTIAL TOTAL3 TEMPAVG PRESSURE GPRESSURE VOLUME PRESSAVG GPRESSAVG
ENERGY: 36000 165.0140 492.3013 481.0292 34.7913 -96103.2432 8151.0975 0.0000 0.0000 15335.5468 -71443.4631 296.2854 -86779.0100 -71405.5266 297.0375 -482.6383 -444.4273 254987.8783 -302.1594 -302.4406
TCL: namdcph) Proposal rejected.
TCL: Running for 500 steps without repeating first step
TCL: namdcph) Proposal rejected.
TCL: Running for 500 steps without repeating first step
ETITLE: TS BOND ANGLE DIHED IMPRP ELECT VDW BOUNDARY MISC KINETIC TOTAL TEMP POTENTIAL TOTAL3 TEMPAVG PRESSURE GPRESSURE VOLUME PRESSAVG GPRESSAVG
ENERGY: 37000 154.3978 468.2477 481.7088 32.2556 -96490.8184 8267.6034 0.0000 0.0000 15600.0841 -71486.5210 301.3963 -87086.6051 -71446.0150 297.7578 -239.7328 -206.0603 254987.8783 -194.3528 -194.3579
TCL: namdcph) Proposal rejected.
TCL: Running for 500 steps without repeating first step
TCL: namdcph) Proposal rejected.
TCL: Running for 500 steps without repeating first step
ETITLE: TS BOND ANGLE DIHED IMPRP ELECT VDW BOUNDARY MISC KINETIC TOTAL TEMP POTENTIAL TOTAL3 TEMPAVG PRESSURE GPRESSURE VOLUME PRESSAVG GPRESSAVG
ENERGY: 38000 174.4765 486.1094 478.8512 33.1527 -96270.3760 8181.9212 0.0000 0.0000 15298.5705 -71617.2944 295.5710 -86915.8649 -71580.8817 296.7287 -407.9546 -367.7018 254987.8783 -276.1068 -276.2639
TCL: namdcph) Proposal rejected.
TCL: Running for 500 steps without repeating first step
TCL: namdcph) Proposal rejected.
TCL: Running for 500 steps without repeating first step
