Info: SIMULATION PARAMETERS:
Info: TIMESTEP               2
Info: NUMBER OF STEPS        0
Info: STEPS PER CYCLE        20
Info: PERIODIC CELL BASIS 1  44.2525 0 0
Info: PERIODIC CELL BASIS 2  0 55.5696 0
Info: PERIODIC CELL BASIS 3  0 0 104.296
Info: PERIODIC CELL CENTER   0.203575 0.535242 2.84572
Info: WRAPPING WATERS AROUND PERIODIC BOUNDARIES ON OUTPUT.
Info: WRAPPING ALL CLUSTERS AROUND PERIODIC BOUNDARIES ON OUTPUT.
Info: FIRST LDB TIMESTEP     100
Info: LAST LDB TIMESTEP     -1
Info: HOM BACKGROUND SCALING 1
Info: PME BACKGROUND SCALING 1
Info: MIN ATOMS PER PATCH    40
Info: INITIAL TEMPERATURE    298
Info: CENTER OF MASS MOVING INITIALLY? NO
Info: DIELECTRIC             1
Info: EXCLUDE                SCALED ONE-FOUR
Info: 1-4 ELECTROSTATICS SCALED BY 1
Info: MODIFIED 1-4 VDW PARAMETERS WILL BE USED
Info: DCD FILENAME           13/Pre13_0.dcd
Info: DCD FREQUENCY          1000
Info: DCD FIRST STEP         1000
Info: DCD FILE WILL CONTAIN UNIT CELL DATA
Info: NO EXTENDED SYSTEM TRAJECTORY OUTPUT
Info: NO VELOCITY DCD OUTPUT
Info: NO FORCE DCD OUTPUT
Info: OUTPUT FILENAME        13/Pre13_0
Info: BINARY OUTPUT FILES WILL BE USED
Info: NO RESTART FILE
Info: SWITCHING ACTIVE
Info: VDW FORCE SWITCHING ACTIVE
Info: SWITCHING ON           10
Info: SWITCHING OFF          12
Info: PAIRLIST DISTANCE      14
Info: PAIRLIST SHRINK RATE   0.01
Info: PAIRLIST GROW RATE     0.01
Info: PAIRLIST TRIGGER       0.3
Info: PAIRLISTS PER CYCLE    2
Info: PAIRLISTS ENABLED
Info: MARGIN                 2
Info: HYDROGEN GROUP CUTOFF  2.5
Info: PATCH DIMENSION        18.5
Info: ENERGY OUTPUT STEPS    1000
Info: CROSSTERM ENERGY INCLUDED IN DIHEDRAL
Info: TIMING OUTPUT STEPS    10000
Info: THERMODYNAMIC INTEGRATION (TI) ON
Info: TI LAMBDA VALUE     0
Info: TI INTRA-ALCHEMICAL NON-BONDED INTERACTIONS WILL BE DECOUPLED
Info: TI INTRA-ALCHEMICAL BONDED INTERACTIONS WILL BE DECOUPLED
Info: TI VDW SHIFTING COEFFICIENT 0
Info: TI ELEC. ACTIVE FOR ANNIHILATED PARTICLES BETWEEN LAMBDA = 0 AND LAMBDA = 1
Info: TI ELEC. ACTIVE FOR EXNIHILATED PARTICLES BETWEEN LAMBDA = 0 AND LAMBDA = 1
Info: TI VDW ACTIVE FOR ANNIHILATED PARTICLES BETWEEN LAMBDA = 0 AND LAMBDA = 1
Info: TI VDW ACTIVE FOR EXNIHILATED PARTICLES BETWEEN LAMBDA = 0 AND LAMBDA = 1
Info: TI BOND ACTIVE FOR ANNIHILATED PARTICLES BETWEEN LAMBDA = 0 AND LAMBDA = 1
Info: TI BOND ACTIVE FOR EXNIHILATED PARTICLES BETWEEN LAMBDA = 0 AND LAMBDA = 1
Info: LANGEVIN DYNAMICS ACTIVE
Info: LANGEVIN TEMPERATURE   298
Info: LANGEVIN USING BBK INTEGRATOR
Info: LANGEVIN DAMPING COEFFICIENT IS 1 INVERSE PS
Info: LANGEVIN DYNAMICS NOT APPLIED TO HYDROGENS
Info: PARTICLE MESH EWALD (PME) ACTIVE
Info: PME TOLERANCE               1e-06
Info: PME EWALD COEFFICIENT       0.257952
Info: PME INTERPOLATION ORDER     4
Info: PME GRID DIMENSIONS         48 56 108
Info: PME MAXIMUM GRID SPACING    1
Info: FULL ELECTROSTATIC EVALUATION FREQUENCY      2
Info: USING VERLET I (r-RESPA) MTS SCHEME.
Info: C1 SPLITTING OF LONG RANGE ELECTROSTATICS
Info: PLACING ATOMS IN PATCHES BY HYDROGEN GROUPS
Info: RIGID BONDS TO HYDROGEN : ALL
Info:         ERROR TOLERANCE : 1e-08
Info:          MAX ITERATIONS : 100
Info: RIGID WATER USING SETTLE ALGORITHM
Info: RANDOM NUMBER SEED     1689591187
Info: USE HYDROGEN BONDS?    NO
Info: COORDINATE PDB         ../topology/preD936H.pdb
Info: STRUCTURE FILE         ../topology/preD936H.psf
Info: PARAMETER file: CHARMM format!
Info: PARAMETERS             ../../toppar/par_all36_carb.prm
Info: PARAMETERS             ../../toppar/par_all36_cgenff.prm
Info: PARAMETERS             ../../toppar/par_all36_lipid.prm
Info: PARAMETERS             ../../toppar/par_all36_na.prm
Info: PARAMETERS             ../../toppar/par_all36_prot.prm
Info: PARAMETERS             ../../toppar/par_all36_solvent.prm
Info: PARAMETERS             ../../toppar/par_cph36_prot.prm
Info: PARAMETERS             ../../toppar/toppar_all36_carb_glycopeptide.str
Info: PARAMETERS             ../../toppar/toppar_water_ions_namd.str
Info: USING ARITHMETIC MEAN TO COMBINE L-J SIGMA PARAMETERS
Info: SKIPPING rtf SECTION IN STREAM FILE
Info: SKIPPING rtf SECTION IN STREAM FILE
Info: SUMMARY OF PARAMETERS:
Info: 925 BONDS
Info: 2696 ANGLES
Info: 6608 DIHEDRAL
Info: 195 IMPROPER
Info: 6 CROSSTERM
Info: 366 VDW
Info: 6 VDW_PAIRS
Info: 0 NBTHOLE_PAIRS
Info: READING EXTRA BONDS FILE 13/namdcph.sw.extrabonds
Info: To read alchdata from file: coordinate pdb file (default)
Info: To read alchflag data from column: 5
Info: LONG-RANGE LJ: APPLYING ANALYTICAL CORRECTIONS TO ENERGY AND PRESSURE
Info: LONG-RANGE LJ: AVERAGE A0 AND B0 COEFFICIENTS 70982 AND 74.603
Info: LONG-RANGE LJ: AVERAGE A1 AND B1 COEFFICIENTS 70982 AND 74.603
Info: STRUCTURE SUMMARY:
Info: 25959 ATOMS
Info: 17562 BONDS
Info: 9911 ANGLES
Info: 2266 DIHEDRALS
Info: 179 IMPROPERS
Info: 54 CROSSTERMS
Info: 0 EXCLUSIONS
Info: 25484 RIGID BONDS
Info: ALCH: 0 ATOMS TO DISAPPEAR IN FINAL STATE
Info: ALCH: 0 ATOMS TO APPEAR IN FINAL STATE
Info: 52393 DEGREES OF FREEDOM
Info: 8824 HYDROGEN GROUPS
Info: 4 ATOMS IN LARGEST HYDROGEN GROUP
Info: 8824 MIGRATION GROUPS
Info: 4 ATOMS IN LARGEST MIGRATION GROUP
Info: TOTAL MASS = 157926 amu
Info: TOTAL CHARGE = 4.24683e-07 e
Info: MASS DENSITY = 1.02252 g/cm^3
Info: ATOM DENSITY = 0.101215 atoms/A^3
Info: ADDED 29728 IMPLICIT EXCLUSIONS
Info: NONBONDED TABLE R-SQUARED SPACING: 0.0625
Info: NONBONDED TABLE SIZE: 769 POINTS
Info: REMOVING COM VELOCITY 0.02079 0.0145874 0.0337025
TCL: Setting parameter alchLambdaFreq to 1
Info: NONBONDED TABLE R-SQUARED SPACING: 0.0625
Info: NONBONDED TABLE SIZE: 769 POINTS
TCL: Setting parameter alch to off
Info: NONBONDED TABLE R-SQUARED SPACING: 0.0625
Info: NONBONDED TABLE SIZE: 769 POINTS
TCL: namdcph) initializing constant pH PSF...
TCL: aliasing PP1:936:HSD to HIS
TCL: WARNING! Building new atom PP1:918:HE1 with unknown mass.
TCL:          This may cause issues, for example, with mass repartitioning.
TCL: WARNING! Building new atom PP1:918:HE2 with unknown mass.
TCL:          This may cause issues, for example, with mass repartitioning.
TCL: WARNING! Building new atom PP1:936:HE2 with unknown mass.
TCL:          This may cause issues, for example, with mass repartitioning.
TCL: WARNING! Building new atom PP1:950:HD1 with unknown mass.
TCL:          This may cause issues, for example, with mass repartitioning.
TCL: WARNING! Building new atom PP1:950:HD2 with unknown mass.
TCL:          This may cause issues, for example, with mass repartitioning.
TCL: cphpsfgen) creating new alchemical side chain for PP1:918:GLU
TCL: cphpsfgen) merging alchemical sidechains for PP1:918:GLU
TCL: cphpsfgen) creating new alchemical side chain for PP1:921:LYS
TCL: cphpsfgen) merging alchemical sidechains for PP1:921:LYS
TCL: cphpsfgen) creating new alchemical side chain for PP1:933:LYS
TCL: cphpsfgen) merging alchemical sidechains for PP1:933:LYS
TCL: cphpsfgen) creating new alchemical side chain for PP1:936:HIS
TCL: cphpsfgen) merging alchemical sidechains for PP1:936:HIS
TCL: cphpsfgen) creating new alchemical side chain for PP1:947:LYS
TCL: cphpsfgen) merging alchemical sidechains for PP1:947:LYS
TCL: cphpsfgen) creating new alchemical side chain for PP1:950:ASP
TCL: cphpsfgen) merging alchemical sidechains for PP1:950:ASP
TCL: cphpsfgen) creating new alchemical side chain for PP1:964:LYS
TCL: cphpsfgen) merging alchemical sidechains for PP1:964:LYS
TCL: namdcph) ***************************************
TCL: namdcph) CONSTANT pH MD ACTIVE
TCL: namdcph) SYSTEM pH 13
TCL: namdcph) CONSTANT pH CONFIGURATION FILE(S)
TCL: namdcph) ../../toppar/conf_cph36_prot.json
TCL: namdcph) NONEQUILIBRIUM SWITCH PARAMETERS:
TCL: namdcph) ALCHEMICAL FORCE CONSTANT 100.0 kcal/mol-A^2
TCL: namdcph) neMD/MC CRITERION TEMPERATURE 298.0
TCL: namdcph) TEMPORARY FILE INFORMATION:
TCL: namdcph) cpH TOPOLOGY FILE BASENAME 13/namdcph.md
TCL: namdcph) neMD/MC TRAJECTORY BASENAME 13/namdcph.sw
TCL: namdcph) ***************************************
TCL: namdcph) ***************************************
TCL: namdcph) TITRATABLE RESIDUE DEFINITIONS:
TCL: namdcph) HIS ASP GLU CYS LYS
TCL: namdcph) TITRATABLE SYSTEM SUMMARY:
TCL: namdcph) 7 RESIDUE(S)
TCL: namdcph) 18 PROTONATION SITE(S)
TCL: namdcph) ***************************************
TCL: namdcph) segid:resid:resname : state : pKai
TCL: namdcph) PP1:918:GLU         :     D : 5.90
TCL: namdcph) PP1:921:LYS         :     3 : 9.77
TCL: namdcph) PP1:933:LYS         :     1 : 9.53
TCL: namdcph) PP1:936:HIS         :     E : 6.5 7.0
TCL: namdcph) PP1:947:LYS         :     3 : 9.82
TCL: namdcph) PP1:950:ASP         :     D : 5.50
TCL: namdcph) PP1:964:LYS         :     1 : 9.68
TCL: namdcph) ***************************************
TCL: namdcph) *************************************************
TCL: namdcph) CONSTANT pH neMD/MC MOVES:
TCL: namdcph) MAX. ATTEMPTS PER CYCLE: 1
TCL: namdcph) ONE RESIDUE MOVES
TCL: namdcph) move label     : numsteps   weight
TCL: namdcph) PP1:918:GLU    :    75000     1.00
TCL: namdcph) PP1:921:LYS    :    75000     1.00
TCL: namdcph) PP1:933:LYS    :    75000     1.00
TCL: namdcph) PP1:936:HIS    :    75000     1.00
TCL: namdcph) PP1:947:LYS    :    75000     1.00
TCL: namdcph) PP1:950:ASP    :    75000     1.00
TCL: namdcph) PP1:964:LYS    :    75000     1.00
TCL: namdcph) *************************************************
TCL: namdcph) clearing extraBondsFile 13/namdcph.sw.extrabonds
TCL: Reloading molecular structure from file 13/namdcph.md.psf and pdb file 13/namdcph.md.pdb
Info: READING EXTRA BONDS FILE 13/namdcph.sw.extrabonds
Info: LONG-RANGE LJ: APPLYING ANALYTICAL CORRECTIONS TO ENERGY AND PRESSURE
Info: LONG-RANGE LJ: AVERAGE A AND B COEFFICIENTS 71003.9 AND 74.6249
Info: STRUCTURE SUMMARY:
Info: 25964 ATOMS
Info: 17567 BONDS
Info: 9912 ANGLES
Info: 2278 DIHEDRALS
Info: 183 IMPROPERS
Info: 54 CROSSTERMS
Info: 0 EXCLUSIONS
Info: 25489 RIGID BONDS
Info: 52403 DEGREES OF FREEDOM
Info: 8824 HYDROGEN GROUPS
Info: 4 ATOMS IN LARGEST HYDROGEN GROUP
Info: 8824 MIGRATION GROUPS
Info: 4 ATOMS IN LARGEST MIGRATION GROUP
Info: TOTAL MASS = 157931 amu
Info: TOTAL CHARGE = -4 e
Info: MASS DENSITY = 1.02255 g/cm^3
Info: ATOM DENSITY = 0.101235 atoms/A^3
Info: ADDED 29751 IMPLICIT EXCLUSIONS
Info: NONBONDED TABLE R-SQUARED SPACING: 0.0625
Info: NONBONDED TABLE SIZE: 769 POINTS
TCL: Reinitializing atom data from files with basename 13/namdcph.md
Info: REMOVING COM VELOCITY 0.00273659 0.00249351 -0.000409667
TCL: Minimizing for 300 steps
ETITLE: TS BOND ANGLE DIHED IMPRP ELECT VDW BOUNDARY MISC KINETIC TOTAL TEMP POTENTIAL TOTAL3 TEMPAVG PRESSURE GPRESSURE VOLUME PRESSAVG GPRESSAVG
ENERGY: 0 53.1215 103.3835 449.2574 1288.9664 -82897.8602 99999999999.9999 0.0000 0.0000 0.0000 99999999999.9999 0.0000 99999999999.9999 99999999999.9999 0.0000 99999999999.9999 99999999999.9999 256473.6171 99999999999.9999 99999999999.9999
ENERGY: 60 101.5913 219.0136 440.3566 214.7122 -92372.1418 13314.2022 0.0000 0.0000 0.0000 -78082.2659 0.0000 -78082.2659 -78082.2659 0.0000 26005.5308 7494.4708 256473.6171 26005.5308 7494.4708
ENERGY: 120 99.3911 274.4707 440.9972 11.8093 -98856.8846 9811.5825 0.0000 0.0000 0.0000 -88218.6339 0.0000 -88218.6339 -88218.6339 0.0000 21256.3885 1463.8091 256473.6171 21256.3885 1463.8091
ENERGY: 180 71.6615 221.6569 437.5413 46.1180 -100922.5043 9202.4705 0.0000 0.0000 0.0000 -90943.0560 0.0000 -90943.0560 -90943.0560 0.0000 20293.2501 36.4479 256473.6171 20293.2501 36.4479
ENERGY: 240 119.9151 214.0973 435.5876 15.7632 -103224.0403 8866.6449 0.0000 0.0000 0.0000 -93572.0322 0.0000 -93572.0322 -93572.0322 0.0000 19756.8392 19723.1540 256473.6171 19756.8392 19723.1540
ENERGY: 300 73.2901 185.3875 431.5813 11.5511 -106111.3107 8948.5504 0.0000 0.0000 0.0000 -96460.9503 0.0000 -96460.9503 -96460.9503 0.0000 19513.4662 19442.7188 256473.6171 19513.4662 19442.7188
TCL: Setting parameter firstTimeStep to 0
TCL: Running for 500 steps
ETITLE: TS BOND ANGLE DIHED IMPRP ELECT VDW BOUNDARY MISC KINETIC TOTAL TEMP POTENTIAL TOTAL3 TEMPAVG PRESSURE GPRESSURE VOLUME PRESSAVG GPRESSAVG
ENERGY: 0 73.2901 185.3875 431.5813 11.5511 -106111.3107 8948.5504 0.0000 0.0000 15528.9142 -80932.0361 298.2465 -96460.9503 -80949.0390 298.2465 -2681.3564 -2617.9517 256473.6171 -2681.3564 -2617.9517
TCL: namdcph) Proposal rejected.
TCL: Running for 500 steps without repeating first step
ETITLE: TS BOND ANGLE DIHED IMPRP ELECT VDW BOUNDARY MISC KINETIC TOTAL TEMP POTENTIAL TOTAL3 TEMPAVG PRESSURE GPRESSURE VOLUME PRESSAVG GPRESSAVG
ENERGY: 1000 161.1802 446.4751 501.7851 28.9009 -101371.2382 9334.1836 0.0000 0.0000 13625.2054 -77273.5080 261.6841 -90898.7134 -77240.1014 244.0324 -537.1123 -502.1100 256473.6171 -537.4243 -537.5339
TCL: namdcph) Proposal rejected.
TCL: Running for 500 steps without repeating first step
TCL: namdcph) Proposal rejected.
TCL: Running for 500 steps without repeating first step
ETITLE: TS BOND ANGLE DIHED IMPRP ELECT VDW BOUNDARY MISC KINETIC TOTAL TEMP POTENTIAL TOTAL3 TEMPAVG PRESSURE GPRESSURE VOLUME PRESSAVG GPRESSAVG
ENERGY: 2000 153.2263 469.8797 493.2827 34.6775 -99534.7150 8927.5845 0.0000 0.0000 14466.9050 -74989.1594 277.8497 -89456.0643 -74952.5277 271.5420 -423.7063 -396.5273 256473.6171 -588.0314 -588.1234
TCL: namdcph) Proposal rejected.
TCL: Running for 500 steps without repeating first step
TCL: namdcph) Proposal rejected.
TCL: Running for 500 steps without repeating first step
ETITLE: TS BOND ANGLE DIHED IMPRP ELECT VDW BOUNDARY MISC KINETIC TOTAL TEMP POTENTIAL TOTAL3 TEMPAVG PRESSURE GPRESSURE VOLUME PRESSAVG GPRESSAVG
ENERGY: 3000 166.6893 476.6153 483.2430 33.9216 -98293.8152 8568.6585 0.0000 0.0000 14881.5261 -73683.1612 285.8128 -88564.6874 -73645.1116 282.6941 -427.5698 -393.7967 256473.6171 -434.3672 -434.4201
TCL: namdcph) Proposal rejected.
TCL: Running for 500 steps without repeating first step
TCL: namdcph) Proposal rejected.
TCL: Running for 500 steps without repeating first step
ETITLE: TS BOND ANGLE DIHED IMPRP ELECT VDW BOUNDARY MISC KINETIC TOTAL TEMP POTENTIAL TOTAL3 TEMPAVG PRESSURE GPRESSURE VOLUME PRESSAVG GPRESSAVG
ENERGY: 4000 144.7755 506.5640 485.7074 33.4951 -98023.2311 8677.0051 0.0000 0.0000 15191.1856 -72984.4984 291.7601 -88175.6840 -72947.2046 289.4723 -115.5497 -77.7876 256473.6171 -261.5480 -261.5079
TCL: namdcph) Proposal rejected.
TCL: Running for 500 steps without repeating first step
TCL: namdcph) Proposal rejected.
TCL: Running for 500 steps without repeating first step
ETITLE: TS BOND ANGLE DIHED IMPRP ELECT VDW BOUNDARY MISC KINETIC TOTAL TEMP POTENTIAL TOTAL3 TEMPAVG PRESSURE GPRESSURE VOLUME PRESSAVG GPRESSAVG
ENERGY: 5000 158.0847 507.1748 489.0300 39.5372 -97515.9897 8427.0900 0.0000 0.0000 15434.6259 -72460.4470 296.4356 -87895.0729 -72424.7592 293.0629 -399.6920 -364.1652 256473.6171 -224.2077 -224.2146
TCL: namdcph) Proposal rejected.
TCL: Running for 500 steps without repeating first step
TCL: namdcph) Proposal rejected.
TCL: Running for 500 steps without repeating first step
ETITLE: TS BOND ANGLE DIHED IMPRP ELECT VDW BOUNDARY MISC KINETIC TOTAL TEMP POTENTIAL TOTAL3 TEMPAVG PRESSURE GPRESSURE VOLUME PRESSAVG GPRESSAVG
ENERGY: 6000 152.6517 490.0737 485.3510 37.3398 -97631.1003 8576.9869 0.0000 0.0000 15295.3034 -72593.3939 293.7598 -87888.6973 -72553.2532 294.9209 -193.5877 -159.9644 256473.6171 -249.2867 -249.3839
TCL: namdcph) Proposal rejected.
TCL: Running for 500 steps without repeating first step
TCL: namdcph) Proposal accepted, attemping a switch.
TCL: Setting parameter outputEnergies to 75000
TCL: Setting parameter dcdFreq to 0
TCL: Setting parameter firstTimestep to 0
TCL: Setting parameter alch to on
Info: NONBONDED TABLE R-SQUARED SPACING: 0.0625
Info: NONBONDED TABLE SIZE: 769 POINTS
TCL: Writing to files with basename 13/namdcph.md.
TCL: cphpsfgen) creating new alchemical side chain for PP1:936:HIS
TCL: Reloading molecular structure from file 13/namdcph.sw.psf and pdb file 13/namdcph.sw.pdb
Info: READING EXTRA BONDS FILE 13/namdcph.sw.extrabonds
Info: READ 12 EXTRA BONDS
Info: To read alchdata from file: coordinate pdb file (default)
Info: To read alchflag data from column: 5
Info: LONG-RANGE LJ: APPLYING ANALYTICAL CORRECTIONS TO ENERGY AND PRESSURE
Info: LONG-RANGE LJ: AVERAGE A0 AND B0 COEFFICIENTS 71003.9 AND 74.6249
Info: LONG-RANGE LJ: AVERAGE A1 AND B1 COEFFICIENTS 71003.9 AND 74.6249
Info: STRUCTURE SUMMARY:
Info: 25976 ATOMS
Info: 17592 BONDS
Info: 9935 ANGLES
Info: 2317 DIHEDRALS
Info: 189 IMPROPERS
Info: 54 CROSSTERMS
Info: 0 EXCLUSIONS
Info: 25495 RIGID BONDS
Info: ALCH: 12 ATOMS TO DISAPPEAR IN FINAL STATE
Info: ALCH: 12 ATOMS TO APPEAR IN FINAL STATE
Info: ALCH: 6 DIHEDRALS LINKING INITIAL AND FINAL ATOMS DELETED
Info: 52433 DEGREES OF FREEDOM
Info: 8830 HYDROGEN GROUPS
Info: 4 ATOMS IN LARGEST HYDROGEN GROUP
Info: 8830 MIGRATION GROUPS
Info: 4 ATOMS IN LARGEST MIGRATION GROUP
Info: TOTAL MASS = 158013 amu
Info: TOTAL CHARGE = -4 e
Info: MASS DENSITY = 1.02308 g/cm^3
Info: ATOM DENSITY = 0.101281 atoms/A^3
Info: ADDED 29822 IMPLICIT EXCLUSIONS
Info: NONBONDED TABLE R-SQUARED SPACING: 0.0625
Info: NONBONDED TABLE SIZE: 769 POINTS
TCL: Reinitializing atom data from files with basename 13/namdcph.sw
Info: REMOVING COM VELOCITY 0.00734675 -0.0322161 0.0302298
TCL: Running for 75000 steps
ETITLE: TS BOND ANGLE DIHED IMPRP ELECT VDW BOUNDARY MISC KINETIC TOTAL TEMP POTENTIAL TOTAL3 TEMPAVG PRESSURE GPRESSURE VOLUME PRESSAVG GPRESSAVG
ENERGY: 0 159.7635 497.5766 494.5620 35.2312 -97345.2225 8371.0586 0.0000 0.0000 15390.0454 -72396.9853 295.4103 -87787.0307 -72360.0529 294.9579 -357.3816 -325.3808 256473.6171 -257.5818 -257.5107
ENERGY: 75000 192.9767 482.6570 473.5006 35.4989 -96719.2027 8253.3151 0.0000 0.0000 15459.1574 -71822.0970 296.7369 -87281.2545 -71782.3981 297.2149 -381.7646 -348.3856 256473.6171 -180.8303 -180.8380
TCL: Setting parameter outputEnergies to 1000
TCL: Setting parameter dcdFreq to 1000
TCL: namdcph) PP1:936:HIS:E:D WorkCorr   -15.8000 CorrWork    -0.5514
TCL: Setting parameter outputEnergies to 1000
TCL: Setting parameter dcdFreq to 1000
TCL: Setting parameter firstTimestep to 6500
TCL: namdcph) Switch accepted!
TCL: Writing to files with basename 13/namdcph.sw.
TCL: cphpsfgen) merging alchemical sidechains for PP1:936:HIS
TCL: Setting parameter alch to off
Info: NONBONDED TABLE R-SQUARED SPACING: 0.0625
Info: NONBONDED TABLE SIZE: 769 POINTS
TCL: namdcph) clearing extraBondsFile 13/namdcph.sw.extrabonds
TCL: Reloading molecular structure from file 13/namdcph.md.psf and pdb file 13/namdcph.md.pdb
Info: READING EXTRA BONDS FILE 13/namdcph.sw.extrabonds
Info: LONG-RANGE LJ: APPLYING ANALYTICAL CORRECTIONS TO ENERGY AND PRESSURE
Info: LONG-RANGE LJ: AVERAGE A AND B COEFFICIENTS 71003.9 AND 74.6249
Info: STRUCTURE SUMMARY:
Info: 25964 ATOMS
Info: 17567 BONDS
Info: 9912 ANGLES
Info: 2278 DIHEDRALS
Info: 183 IMPROPERS
Info: 54 CROSSTERMS
Info: 0 EXCLUSIONS
Info: 25489 RIGID BONDS
Info: 52403 DEGREES OF FREEDOM
Info: 8824 HYDROGEN GROUPS
Info: 4 ATOMS IN LARGEST HYDROGEN GROUP
Info: 8824 MIGRATION GROUPS
Info: 4 ATOMS IN LARGEST MIGRATION GROUP
Info: TOTAL MASS = 157931 amu
Info: TOTAL CHARGE = -4 e
Info: MASS DENSITY = 1.02255 g/cm^3
Info: ATOM DENSITY = 0.101235 atoms/A^3
Info: ADDED 29751 IMPLICIT EXCLUSIONS
Info: NONBONDED TABLE R-SQUARED SPACING: 0.0625
Info: NONBONDED TABLE SIZE: 769 POINTS
TCL: Reinitializing atom data from files with basename 13/namdcph.md
Info: REMOVING COM VELOCITY 0.100744 -0.00134332 -0.0365274
TCL: Running for 500 steps
ETITLE: TS BOND ANGLE DIHED IMPRP ELECT VDW BOUNDARY MISC KINETIC TOTAL TEMP POTENTIAL TOTAL3 TEMPAVG PRESSURE GPRESSURE VOLUME PRESSAVG GPRESSAVG
ENERGY: 7000 159.3437 532.9621 479.1614 38.9027 -97215.6240 8524.2850 0.0000 0.0000 15510.1694 -71970.7999 297.8865 -87480.9693 -71935.1298 299.0640 -25.3547 8.1966 256473.6171 -145.6514 -145.5400
TCL: namdcph) Proposal rejected.
TCL: Running for 500 steps without repeating first step
TCL: namdcph) Proposal rejected.
TCL: Running for 500 steps without repeating first step
ETITLE: TS BOND ANGLE DIHED IMPRP ELECT VDW BOUNDARY MISC KINETIC TOTAL TEMP POTENTIAL TOTAL3 TEMPAVG PRESSURE GPRESSURE VOLUME PRESSAVG GPRESSAVG
ENERGY: 8000 167.9484 468.1195 475.5974 35.5698 -97075.0538 8417.1179 0.0000 0.0000 15421.5734 -72089.1275 296.1849 -87510.7009 -72046.5074 297.9826 -203.8705 -161.3294 256473.6171 -176.3114 -176.2755
TCL: namdcph) Proposal rejected.
TCL: Running for 500 steps without repeating first step
TCL: namdcph) Proposal rejected.
TCL: Running for 500 steps without repeating first step
ETITLE: TS BOND ANGLE DIHED IMPRP ELECT VDW BOUNDARY MISC KINETIC TOTAL TEMP POTENTIAL TOTAL3 TEMPAVG PRESSURE GPRESSURE VOLUME PRESSAVG GPRESSAVG
ENERGY: 9000 164.3859 492.0792 482.2584 32.1309 -97162.8780 8580.0287 0.0000 0.0000 15563.8297 -71848.1653 298.9171 -87411.9950 -71811.0080 298.0903 9.2857 41.8091 256473.6171 -213.1780 -213.2096
TCL: namdcph) Proposal rejected.
TCL: Running for 500 steps without repeating first step
TCL: namdcph) Proposal rejected.
TCL: Running for 500 steps without repeating first step
ETITLE: TS BOND ANGLE DIHED IMPRP ELECT VDW BOUNDARY MISC KINETIC TOTAL TEMP POTENTIAL TOTAL3 TEMPAVG PRESSURE GPRESSURE VOLUME PRESSAVG GPRESSAVG
ENERGY: 10000 175.0068 480.4250 486.3318 35.6735 -97171.5569 8361.9931 0.0000 0.0000 15538.9577 -72093.1691 298.4394 -87632.1268 -72056.5611 298.7909 -371.4358 -335.2775 256473.6171 -109.9408 -110.0600
TCL: namdcph) Proposal rejected.
TCL: Running for 500 steps without repeating first step
TCL: namdcph) Proposal accepted, attemping a switch.
TCL: Setting parameter outputEnergies to 75000
TCL: Setting parameter dcdFreq to 0
TCL: Setting parameter firstTimestep to 0
TCL: Setting parameter alch to on
Info: NONBONDED TABLE R-SQUARED SPACING: 0.0625
Info: NONBONDED TABLE SIZE: 769 POINTS
TCL: Writing to files with basename 13/namdcph.md.
TCL: cphpsfgen) creating new alchemical side chain for PP1:936:HIS
TCL: Reloading molecular structure from file 13/namdcph.sw.psf and pdb file 13/namdcph.sw.pdb
Info: READING EXTRA BONDS FILE 13/namdcph.sw.extrabonds
Info: READ 12 EXTRA BONDS
Info: To read alchdata from file: coordinate pdb file (default)
Info: To read alchflag data from column: 5
Info: LONG-RANGE LJ: APPLYING ANALYTICAL CORRECTIONS TO ENERGY AND PRESSURE
Info: LONG-RANGE LJ: AVERAGE A0 AND B0 COEFFICIENTS 71003.9 AND 74.6249
Info: LONG-RANGE LJ: AVERAGE A1 AND B1 COEFFICIENTS 71003.9 AND 74.6249
Info: STRUCTURE SUMMARY:
Info: 25976 ATOMS
Info: 17592 BONDS
Info: 9935 ANGLES
Info: 2317 DIHEDRALS
Info: 189 IMPROPERS
Info: 54 CROSSTERMS
Info: 0 EXCLUSIONS
Info: 25495 RIGID BONDS
Info: ALCH: 12 ATOMS TO DISAPPEAR IN FINAL STATE
Info: ALCH: 12 ATOMS TO APPEAR IN FINAL STATE
Info: ALCH: 6 DIHEDRALS LINKING INITIAL AND FINAL ATOMS DELETED
Info: 52433 DEGREES OF FREEDOM
Info: 8830 HYDROGEN GROUPS
Info: 4 ATOMS IN LARGEST HYDROGEN GROUP
Info: 8830 MIGRATION GROUPS
Info: 4 ATOMS IN LARGEST MIGRATION GROUP
Info: TOTAL MASS = 158013 amu
Info: TOTAL CHARGE = -4 e
Info: MASS DENSITY = 1.02308 g/cm^3
Info: ATOM DENSITY = 0.101281 atoms/A^3
Info: ADDED 29822 IMPLICIT EXCLUSIONS
Info: NONBONDED TABLE R-SQUARED SPACING: 0.0625
Info: NONBONDED TABLE SIZE: 769 POINTS
TCL: Reinitializing atom data from files with basename 13/namdcph.sw
Info: REMOVING COM VELOCITY -0.0191609 -0.0555067 -0.0644804
TCL: Running for 75000 steps
ETITLE: TS BOND ANGLE DIHED IMPRP ELECT VDW BOUNDARY MISC KINETIC TOTAL TEMP POTENTIAL TOTAL3 TEMPAVG PRESSURE GPRESSURE VOLUME PRESSAVG GPRESSAVG
ENERGY: 0 174.4482 464.7516 479.3060 31.2370 -97127.2758 8351.6826 0.0000 0.0000 15442.7243 -72183.1261 296.4214 -87625.8504 -72144.6597 298.0062 -369.5532 -333.8437 256473.6171 -138.2296 -138.1339
ENERGY: 75000 161.6900 495.6479 463.1451 35.0564 -97232.9454 8419.1465 0.0000 0.0000 15638.4832 -72019.7764 300.1790 -87658.2596 -71980.2963 297.0690 -198.3291 -161.9072 256473.6171 -188.5849 -188.5871
TCL: Setting parameter outputEnergies to 1000
TCL: Setting parameter dcdFreq to 1000
TCL: namdcph) PP1:936:HIS:D:E WorkCorr    15.8000 CorrWork     0.6303
TCL: Setting parameter outputEnergies to 1000
TCL: Setting parameter dcdFreq to 1000
TCL: Setting parameter firstTimestep to 10500
TCL: namdcph) Switch accepted!
TCL: Writing to files with basename 13/namdcph.sw.
TCL: cphpsfgen) merging alchemical sidechains for PP1:936:HIS
TCL: Setting parameter alch to off
Info: NONBONDED TABLE R-SQUARED SPACING: 0.0625
Info: NONBONDED TABLE SIZE: 769 POINTS
TCL: namdcph) clearing extraBondsFile 13/namdcph.sw.extrabonds
TCL: Reloading molecular structure from file 13/namdcph.md.psf and pdb file 13/namdcph.md.pdb
Info: READING EXTRA BONDS FILE 13/namdcph.sw.extrabonds
Info: LONG-RANGE LJ: APPLYING ANALYTICAL CORRECTIONS TO ENERGY AND PRESSURE
Info: LONG-RANGE LJ: AVERAGE A AND B COEFFICIENTS 71003.9 AND 74.6249
Info: STRUCTURE SUMMARY:
Info: 25964 ATOMS
Info: 17567 BONDS
Info: 9912 ANGLES
Info: 2278 DIHEDRALS
Info: 183 IMPROPERS
Info: 54 CROSSTERMS
Info: 0 EXCLUSIONS
Info: 25489 RIGID BONDS
Info: 52403 DEGREES OF FREEDOM
Info: 8824 HYDROGEN GROUPS
Info: 4 ATOMS IN LARGEST HYDROGEN GROUP
Info: 8824 MIGRATION GROUPS
Info: 4 ATOMS IN LARGEST MIGRATION GROUP
Info: TOTAL MASS = 157931 amu
Info: TOTAL CHARGE = -4 e
Info: MASS DENSITY = 1.02255 g/cm^3
Info: ATOM DENSITY = 0.101235 atoms/A^3
Info: ADDED 29751 IMPLICIT EXCLUSIONS
Info: NONBONDED TABLE R-SQUARED SPACING: 0.0625
Info: NONBONDED TABLE SIZE: 769 POINTS
TCL: Reinitializing atom data from files with basename 13/namdcph.md
Info: REMOVING COM VELOCITY 0.0431116 -0.0398481 -0.0172629
TCL: Running for 500 steps
ETITLE: TS BOND ANGLE DIHED IMPRP ELECT VDW BOUNDARY MISC KINETIC TOTAL TEMP POTENTIAL TOTAL3 TEMPAVG PRESSURE GPRESSURE VOLUME PRESSAVG GPRESSAVG
ENERGY: 11000 174.2394 476.0358 475.3011 31.5205 -97479.1348 8599.0998 0.0000 0.0000 15497.2545 -72225.6838 297.6384 -87722.9383 -72189.9135 297.5954 -162.5362 -124.9393 256473.6171 -161.4449 -161.3740
TCL: namdcph) Proposal rejected.
TCL: Running for 500 steps without repeating first step
TCL: namdcph) Proposal rejected.
TCL: Running for 500 steps without repeating first step
ETITLE: TS BOND ANGLE DIHED IMPRP ELECT VDW BOUNDARY MISC KINETIC TOTAL TEMP POTENTIAL TOTAL3 TEMPAVG PRESSURE GPRESSURE VOLUME PRESSAVG GPRESSAVG
ENERGY: 12000 159.7446 493.6596 488.7430 30.6485 -97056.2873 8409.6560 0.0000 0.0000 15316.7534 -72157.0821 294.1717 -87473.8356 -72116.3972 296.6944 -300.2101 -257.0854 256473.6171 -124.4447 -124.3828
TCL: namdcph) Proposal rejected.
TCL: Running for 500 steps without repeating first step
TCL: namdcph) Proposal rejected.
TCL: Running for 500 steps without repeating first step
ETITLE: TS BOND ANGLE DIHED IMPRP ELECT VDW BOUNDARY MISC KINETIC TOTAL TEMP POTENTIAL TOTAL3 TEMPAVG PRESSURE GPRESSURE VOLUME PRESSAVG GPRESSAVG
ENERGY: 13000 158.2991 474.8808 463.2979 23.5474 -97135.9334 8270.4407 0.0000 0.0000 15369.9954 -72375.4719 295.1943 -87745.4674 -72338.0265 297.2738 -456.6012 -422.5365 256473.6171 -199.4520 -199.4479
TCL: namdcph) Proposal rejected.
TCL: Running for 500 steps without repeating first step
TCL: namdcph) Proposal rejected.
TCL: Running for 500 steps without repeating first step
ETITLE: TS BOND ANGLE DIHED IMPRP ELECT VDW BOUNDARY MISC KINETIC TOTAL TEMP POTENTIAL TOTAL3 TEMPAVG PRESSURE GPRESSURE VOLUME PRESSAVG GPRESSAVG
ENERGY: 14000 155.1769 498.9566 471.6995 36.7458 -96999.6985 8345.3466 0.0000 0.0000 15417.4320 -72074.3410 296.1054 -87491.7731 -72041.0676 296.6523 -317.1164 -286.8324 256473.6171 -203.7799 -203.7660
TCL: namdcph) Proposal rejected.
TCL: Running for 500 steps without repeating first step
TCL: namdcph) Proposal rejected.
TCL: Running for 500 steps without repeating first step
ETITLE: TS BOND ANGLE DIHED IMPRP ELECT VDW BOUNDARY MISC KINETIC TOTAL TEMP POTENTIAL TOTAL3 TEMPAVG PRESSURE GPRESSURE VOLUME PRESSAVG GPRESSAVG
ENERGY: 15000 176.3610 487.8350 494.3558 37.2183 -97210.5001 8516.3037 0.0000 0.0000 15389.2680 -72109.1583 295.5645 -87498.4263 -72077.1697 297.9488 -58.6454 -26.8967 256473.6171 -191.1213 -191.2082
TCL: namdcph) Proposal rejected.
TCL: Running for 500 steps without repeating first step
TCL: namdcph) Proposal rejected.
TCL: Running for 500 steps without repeating first step
ETITLE: TS BOND ANGLE DIHED IMPRP ELECT VDW BOUNDARY MISC KINETIC TOTAL TEMP POTENTIAL TOTAL3 TEMPAVG PRESSURE GPRESSURE VOLUME PRESSAVG GPRESSAVG
ENERGY: 16000 176.7980 504.1446 476.2880 29.3822 -97185.5975 8468.9078 0.0000 0.0000 15436.7792 -72093.2976 296.4769 -87530.0768 -72054.8835 297.3224 -229.7872 -192.5230 256473.6171 -209.3190 -209.4867
TCL: namdcph) Proposal rejected.
TCL: Running for 500 steps without repeating first step
TCL: namdcph) Proposal rejected.
TCL: Running for 500 steps without repeating first step
ETITLE: TS BOND ANGLE DIHED IMPRP ELECT VDW BOUNDARY MISC KINETIC TOTAL TEMP POTENTIAL TOTAL3 TEMPAVG PRESSURE GPRESSURE VOLUME PRESSAVG GPRESSAVG
ENERGY: 17000 162.1432 514.6463 479.5043 30.9902 -96912.7132 8264.6945 0.0000 0.0000 15447.8766 -72012.8579 296.6901 -87460.7345 -71974.9427 298.0613 -386.5167 -351.9109 256473.6171 -152.3728 -152.3759
TCL: namdcph) Proposal rejected.
TCL: Running for 500 steps without repeating first step
TCL: namdcph) Proposal rejected.
TCL: Running for 500 steps without repeating first step
ETITLE: TS BOND ANGLE DIHED IMPRP ELECT VDW BOUNDARY MISC KINETIC TOTAL TEMP POTENTIAL TOTAL3 TEMPAVG PRESSURE GPRESSURE VOLUME PRESSAVG GPRESSAVG
ENERGY: 18000 175.2183 514.3251 471.7423 24.2588 -97384.0436 8505.1750 0.0000 0.0000 15648.3894 -72044.9346 300.5411 -87693.3241 -72007.6043 297.1107 -208.7046 -175.9048 256473.6171 -217.6900 -217.6465
TCL: namdcph) Proposal rejected.
TCL: Running for 500 steps without repeating first step
TCL: namdcph) Proposal rejected.
TCL: Running for 500 steps without repeating first step
ETITLE: TS BOND ANGLE DIHED IMPRP ELECT VDW BOUNDARY MISC KINETIC TOTAL TEMP POTENTIAL TOTAL3 TEMPAVG PRESSURE GPRESSURE VOLUME PRESSAVG GPRESSAVG
ENERGY: 19000 182.2248 504.5504 490.3699 34.6295 -97412.5068 8475.0087 0.0000 0.0000 15409.1121 -72316.6114 295.9456 -87725.7234 -72275.7097 298.0946 -368.3692 -340.9761 256473.6171 -133.7867 -133.8207
TCL: namdcph) Proposal rejected.
TCL: Running for 500 steps without repeating first step
TCL: namdcph) Proposal rejected.
TCL: Running for 500 steps without repeating first step
ETITLE: TS BOND ANGLE DIHED IMPRP ELECT VDW BOUNDARY MISC KINETIC TOTAL TEMP POTENTIAL TOTAL3 TEMPAVG PRESSURE GPRESSURE VOLUME PRESSAVG GPRESSAVG
ENERGY: 20000 165.5424 512.9453 478.6098 26.4469 -97432.5268 8414.3317 0.0000 0.0000 15482.4277 -72352.2231 297.3537 -87834.6507 -72311.5511 297.1056 -356.1274 -322.2866 256473.6171 -187.2318 -187.2925
TCL: namdcph) Proposal rejected.
TCL: Running for 500 steps without repeating first step
TCL: namdcph) Proposal rejected.
TCL: Running for 500 steps without repeating first step
ETITLE: TS BOND ANGLE DIHED IMPRP ELECT VDW BOUNDARY MISC KINETIC TOTAL TEMP POTENTIAL TOTAL3 TEMPAVG PRESSURE GPRESSURE VOLUME PRESSAVG GPRESSAVG
ENERGY: 21000 169.7393 484.3812 478.0981 45.2941 -97376.4702 8574.8970 0.0000 0.0000 15466.7845 -72157.2760 297.0532 -87624.0605 -72117.6218 296.7264 -55.2080 -21.3682 256473.6171 -159.5795 -159.5765
TCL: namdcph) Proposal rejected.
TCL: Running for 500 steps without repeating first step
TCL: namdcph) Proposal rejected.
TCL: Running for 500 steps without repeating first step
ETITLE: TS BOND ANGLE DIHED IMPRP ELECT VDW BOUNDARY MISC KINETIC TOTAL TEMP POTENTIAL TOTAL3 TEMPAVG PRESSURE GPRESSURE VOLUME PRESSAVG GPRESSAVG
ENERGY: 22000 160.8687 481.0026 476.8307 32.0107 -97434.0071 8666.3402 0.0000 0.0000 15562.6478 -72054.3065 298.8944 -87616.9543 -72013.9667 298.0652 50.5646 84.2179 256473.6171 -200.1413 -200.2116
TCL: namdcph) Proposal rejected.
TCL: Running for 500 steps without repeating first step
TCL: namdcph) Proposal rejected.
TCL: Running for 500 steps without repeating first step
ETITLE: TS BOND ANGLE DIHED IMPRP ELECT VDW BOUNDARY MISC KINETIC TOTAL TEMP POTENTIAL TOTAL3 TEMPAVG PRESSURE GPRESSURE VOLUME PRESSAVG GPRESSAVG
ENERGY: 23000 168.7796 491.4774 467.6024 35.3775 -97221.9447 8360.3132 0.0000 0.0000 15478.9714 -72219.4232 297.2873 -87698.3946 -72182.3823 296.6431 -275.3961 -245.6103 256473.6171 -230.7920 -230.7312
TCL: namdcph) Proposal rejected.
TCL: Running for 500 steps without repeating first step
TCL: namdcph) Proposal rejected.
TCL: Running for 500 steps without repeating first step
ETITLE: TS BOND ANGLE DIHED IMPRP ELECT VDW BOUNDARY MISC KINETIC TOTAL TEMP POTENTIAL TOTAL3 TEMPAVG PRESSURE GPRESSURE VOLUME PRESSAVG GPRESSAVG
ENERGY: 24000 175.3124 478.7850 490.0620 29.0397 -97060.5294 8393.9863 0.0000 0.0000 15443.4904 -72049.8537 296.6058 -87493.3441 -72015.1663 297.3871 -241.7143 -211.8317 256473.6171 -175.3913 -175.3457
TCL: namdcph) Proposal rejected.
TCL: Running for 500 steps without repeating first step
TCL: namdcph) Proposal rejected.
TCL: Running for 500 steps without repeating first step
ETITLE: TS BOND ANGLE DIHED IMPRP ELECT VDW BOUNDARY MISC KINETIC TOTAL TEMP POTENTIAL TOTAL3 TEMPAVG PRESSURE GPRESSURE VOLUME PRESSAVG GPRESSAVG
ENERGY: 25000 145.5136 468.9356 475.7838 29.2099 -97167.2023 8474.0105 0.0000 0.0000 15400.9738 -72172.7751 295.7893 -87573.7489 -72139.6963 297.5709 -74.0094 -45.8476 256473.6171 -221.5402 -221.5634
TCL: namdcph) Proposal rejected.
TCL: Running for 500 steps without repeating first step
TCL: namdcph) Proposal rejected.
TCL: Running for 500 steps without repeating first step
ETITLE: TS BOND ANGLE DIHED IMPRP ELECT VDW BOUNDARY MISC KINETIC TOTAL TEMP POTENTIAL TOTAL3 TEMPAVG PRESSURE GPRESSURE VOLUME PRESSAVG GPRESSAVG
ENERGY: 26000 145.1068 477.0569 488.7580 40.8699 -97420.4052 8807.4051 0.0000 0.0000 15388.1820 -72073.0264 295.5436 -87461.2084 -72033.7264 297.1200 192.5842 229.7906 256473.6171 -215.5793 -215.6655
TCL: namdcph) Proposal rejected.
TCL: Running for 500 steps without repeating first step
TCL: namdcph) Proposal rejected.
TCL: Running for 500 steps without repeating first step
ETITLE: TS BOND ANGLE DIHED IMPRP ELECT VDW BOUNDARY MISC KINETIC TOTAL TEMP POTENTIAL TOTAL3 TEMPAVG PRESSURE GPRESSURE VOLUME PRESSAVG GPRESSAVG
ENERGY: 27000 160.4135 450.5794 465.1189 37.3356 -97102.6430 8473.2578 0.0000 0.0000 15526.4212 -71989.5166 298.1986 -87515.9379 -71953.5861 297.6530 -84.1166 -49.6593 256473.6171 -188.1287 -188.0989
TCL: namdcph) Proposal rejected.
TCL: Running for 500 steps without repeating first step
TCL: namdcph) Proposal rejected.
TCL: Running for 500 steps without repeating first step
ETITLE: TS BOND ANGLE DIHED IMPRP ELECT VDW BOUNDARY MISC KINETIC TOTAL TEMP POTENTIAL TOTAL3 TEMPAVG PRESSURE GPRESSURE VOLUME PRESSAVG GPRESSAVG
ENERGY: 28000 177.2486 455.5815 475.0439 47.5553 -97255.6369 8431.7485 0.0000 0.0000 15693.2659 -71975.1932 301.4030 -87668.4591 -71942.5054 298.7985 -190.4468 -167.6799 256473.6171 -96.3923 -96.4754
TCL: namdcph) Proposal rejected.
TCL: Running for 500 steps without repeating first step
TCL: namdcph) Proposal rejected.
TCL: Running for 500 steps without repeating first step
ETITLE: TS BOND ANGLE DIHED IMPRP ELECT VDW BOUNDARY MISC KINETIC TOTAL TEMP POTENTIAL TOTAL3 TEMPAVG PRESSURE GPRESSURE VOLUME PRESSAVG GPRESSAVG
ENERGY: 29000 162.0665 489.9142 465.7354 30.1287 -97224.3987 8533.9997 0.0000 0.0000 15480.5053 -72062.0489 297.3167 -87542.5542 -72023.0233 298.2442 -76.1028 -48.3290 256473.6171 -155.6125 -155.5748
TCL: namdcph) Proposal rejected.
TCL: Running for 500 steps without repeating first step
TCL: namdcph) Proposal rejected.
TCL: Running for 500 steps without repeating first step
ETITLE: TS BOND ANGLE DIHED IMPRP ELECT VDW BOUNDARY MISC KINETIC TOTAL TEMP POTENTIAL TOTAL3 TEMPAVG PRESSURE GPRESSURE VOLUME PRESSAVG GPRESSAVG
ENERGY: 30000 168.0027 504.5094 466.6356 34.7072 -96986.7778 8246.2437 0.0000 0.0000 15639.2548 -71927.4244 300.3657 -87566.6792 -71887.0565 297.4460 -306.3283 -268.2790 256473.6171 -180.9044 -180.8992
TCL: namdcph) Proposal rejected.
TCL: Running for 500 steps without repeating first step
TCL: namdcph) Proposal rejected.
TCL: Running for 500 steps without repeating first step
ETITLE: TS BOND ANGLE DIHED IMPRP ELECT VDW BOUNDARY MISC KINETIC TOTAL TEMP POTENTIAL TOTAL3 TEMPAVG PRESSURE GPRESSURE VOLUME PRESSAVG GPRESSAVG
ENERGY: 31000 162.8709 483.1025 480.2246 35.2498 -97162.6419 8314.3308 0.0000 0.0000 15494.6225 -72192.2408 297.5879 -87686.8633 -72157.9205 296.7988 -294.8946 -258.5174 256473.6171 -207.3711 -207.3002
TCL: namdcph) Proposal rejected.
TCL: Running for 500 steps without repeating first step
TCL: namdcph) Proposal rejected.
TCL: Running for 500 steps without repeating first step
ETITLE: TS BOND ANGLE DIHED IMPRP ELECT VDW BOUNDARY MISC KINETIC TOTAL TEMP POTENTIAL TOTAL3 TEMPAVG PRESSURE GPRESSURE VOLUME PRESSAVG GPRESSAVG
ENERGY: 32000 150.9983 482.2361 461.3916 33.8184 -97508.9585 8534.8665 0.0000 0.0000 15617.7025 -72227.9451 299.9517 -87845.6476 -72185.1949 296.8882 -142.8353 -106.9172 256473.6171 -182.5281 -182.4809
TCL: namdcph) Proposal rejected.
TCL: Running for 500 steps without repeating first step
TCL: namdcph) Proposal rejected.
TCL: Running for 500 steps without repeating first step
ETITLE: TS BOND ANGLE DIHED IMPRP ELECT VDW BOUNDARY MISC KINETIC TOTAL TEMP POTENTIAL TOTAL3 TEMPAVG PRESSURE GPRESSURE VOLUME PRESSAVG GPRESSAVG
ENERGY: 33000 156.0881 479.5125 479.6788 33.9116 -97409.3332 8346.7079 0.0000 0.0000 15447.5673 -72465.8671 296.6841 -87913.4344 -72430.9084 296.0098 -403.2821 -370.1809 256473.6171 -143.7479 -143.6207
TCL: namdcph) Proposal rejected.
TCL: Running for 500 steps without repeating first step
TCL: namdcph) Proposal rejected.
TCL: Running for 500 steps without repeating first step
ETITLE: TS BOND ANGLE DIHED IMPRP ELECT VDW BOUNDARY MISC KINETIC TOTAL TEMP POTENTIAL TOTAL3 TEMPAVG PRESSURE GPRESSURE VOLUME PRESSAVG GPRESSAVG
ENERGY: 34000 172.8556 479.1356 475.8508 39.0667 -97341.0616 8527.4677 0.0000 0.0000 15538.6018 -72108.0834 298.4325 -87646.6852 -72074.5256 296.3402 -53.7749 -24.2090 256473.6171 -187.2703 -187.1937
TCL: namdcph) Proposal rejected.
TCL: Running for 500 steps without repeating first step
TCL: namdcph) Proposal rejected.
TCL: Running for 500 steps without repeating first step
ETITLE: TS BOND ANGLE DIHED IMPRP ELECT VDW BOUNDARY MISC KINETIC TOTAL TEMP POTENTIAL TOTAL3 TEMPAVG PRESSURE GPRESSURE VOLUME PRESSAVG GPRESSAVG
ENERGY: 35000 171.3368 463.3040 477.1191 30.6090 -96926.9608 8222.7601 0.0000 0.0000 15584.5228 -71977.3090 299.3145 -87561.8317 -71938.5926 298.0174 -476.9730 -450.1476 256473.6171 -192.6969 -192.7292
TCL: namdcph) Proposal rejected.
TCL: Running for 500 steps without repeating first step
TCL: namdcph) Proposal rejected.
TCL: Running for 500 steps without repeating first step
ETITLE: TS BOND ANGLE DIHED IMPRP ELECT VDW BOUNDARY MISC KINETIC TOTAL TEMP POTENTIAL TOTAL3 TEMPAVG PRESSURE GPRESSURE VOLUME PRESSAVG GPRESSAVG
ENERGY: 36000 156.2442 465.1502 481.0343 35.4699 -97190.3305 8480.0954 0.0000 0.0000 15543.1822 -72029.1543 298.5205 -87572.3365 -71990.5176 297.6633 -80.6264 -47.9145 256473.6171 -169.9116 -169.8564
TCL: namdcph) Proposal accepted, attemping a switch.
TCL: Setting parameter outputEnergies to 75000
TCL: Setting parameter dcdFreq to 0
TCL: Setting parameter firstTimestep to 0
TCL: Setting parameter alch to on
Info: NONBONDED TABLE R-SQUARED SPACING: 0.0625
Info: NONBONDED TABLE SIZE: 769 POINTS
TCL: Writing to files with basename 13/namdcph.md.
TCL: cphpsfgen) creating new alchemical side chain for PP1:936:HIS
TCL: Reloading molecular structure from file 13/namdcph.sw.psf and pdb file 13/namdcph.sw.pdb
Info: READING EXTRA BONDS FILE 13/namdcph.sw.extrabonds
Info: READ 12 EXTRA BONDS
Info: To read alchdata from file: coordinate pdb file (default)
Info: To read alchflag data from column: 5
Info: LONG-RANGE LJ: APPLYING ANALYTICAL CORRECTIONS TO ENERGY AND PRESSURE
Info: LONG-RANGE LJ: AVERAGE A0 AND B0 COEFFICIENTS 71003.9 AND 74.6249
Info: LONG-RANGE LJ: AVERAGE A1 AND B1 COEFFICIENTS 71003.9 AND 74.6249
Info: STRUCTURE SUMMARY:
Info: 25976 ATOMS
Info: 17592 BONDS
Info: 9935 ANGLES
Info: 2317 DIHEDRALS
Info: 189 IMPROPERS
Info: 54 CROSSTERMS
Info: 0 EXCLUSIONS
Info: 25495 RIGID BONDS
Info: ALCH: 12 ATOMS TO DISAPPEAR IN FINAL STATE
Info: ALCH: 12 ATOMS TO APPEAR IN FINAL STATE
Info: ALCH: 6 DIHEDRALS LINKING INITIAL AND FINAL ATOMS DELETED
Info: 52433 DEGREES OF FREEDOM
Info: 8830 HYDROGEN GROUPS
Info: 4 ATOMS IN LARGEST HYDROGEN GROUP
Info: 8830 MIGRATION GROUPS
Info: 4 ATOMS IN LARGEST MIGRATION GROUP
Info: TOTAL MASS = 158013 amu
Info: TOTAL CHARGE = -4 e
Info: MASS DENSITY = 1.02308 g/cm^3
Info: ATOM DENSITY = 0.101281 atoms/A^3
Info: ADDED 29822 IMPLICIT EXCLUSIONS
Info: NONBONDED TABLE R-SQUARED SPACING: 0.0625
Info: NONBONDED TABLE SIZE: 769 POINTS
TCL: Reinitializing atom data from files with basename 13/namdcph.sw
Info: REMOVING COM VELOCITY 0.0186925 0.0596768 -0.0215529
TCL: Running for 75000 steps
Info: NONBONDED TABLE R-SQUARED SPACING: 0.0625
Info: NONBONDED TABLE SIZE: 769 POINTS
Info: READING EXTRA BONDS FILE 13/namdcph.sw.extrabonds
Info: LONG-RANGE LJ: APPLYING ANALYTICAL CORRECTIONS TO ENERGY AND PRESSURE
Info: LONG-RANGE LJ: AVERAGE A AND B COEFFICIENTS 71003.9 AND 74.6249
Info: STRUCTURE SUMMARY:
Info: 25964 ATOMS
Info: 17567 BONDS
Info: 9912 ANGLES
Info: 2278 DIHEDRALS
Info: 183 IMPROPERS
Info: 54 CROSSTERMS
Info: 0 EXCLUSIONS
Info: 25489 RIGID BONDS
Info: 52403 DEGREES OF FREEDOM
Info: 8824 HYDROGEN GROUPS
Info: 4 ATOMS IN LARGEST HYDROGEN GROUP
Info: 8824 MIGRATION GROUPS
Info: 4 ATOMS IN LARGEST MIGRATION GROUP
Info: TOTAL MASS = 157931 amu
Info: TOTAL CHARGE = -4 e
Info: MASS DENSITY = 1.02255 g/cm^3
Info: ATOM DENSITY = 0.101235 atoms/A^3
Info: ADDED 29751 IMPLICIT EXCLUSIONS
Info: NONBONDED TABLE R-SQUARED SPACING: 0.0625
Info: NONBONDED TABLE SIZE: 769 POINTS
Info: REMOVING COM VELOCITY 0.0193076 0.0576005 -0.0218084
Info: NONBONDED TABLE R-SQUARED SPACING: 0.0625
Info: NONBONDED TABLE SIZE: 769 POINTS
Info: READING EXTRA BONDS FILE 13/namdcph.sw.extrabonds
Info: READ 12 EXTRA BONDS
Info: To read alchdata from file: coordinate pdb file (default)
Info: To read alchflag data from column: 5
Info: LONG-RANGE LJ: APPLYING ANALYTICAL CORRECTIONS TO ENERGY AND PRESSURE
Info: LONG-RANGE LJ: AVERAGE A0 AND B0 COEFFICIENTS 71003.9 AND 74.6249
Info: LONG-RANGE LJ: AVERAGE A1 AND B1 COEFFICIENTS 71003.9 AND 74.6249
Info: STRUCTURE SUMMARY:
Info: 25976 ATOMS
Info: 17592 BONDS
Info: 9935 ANGLES
Info: 2317 DIHEDRALS
Info: 189 IMPROPERS
Info: 54 CROSSTERMS
Info: 0 EXCLUSIONS
Info: 25495 RIGID BONDS
Info: ALCH: 12 ATOMS TO DISAPPEAR IN FINAL STATE
Info: ALCH: 12 ATOMS TO APPEAR IN FINAL STATE
Info: ALCH: 6 DIHEDRALS LINKING INITIAL AND FINAL ATOMS DELETED
Info: 52433 DEGREES OF FREEDOM
Info: 8830 HYDROGEN GROUPS
Info: 4 ATOMS IN LARGEST HYDROGEN GROUP
Info: 8830 MIGRATION GROUPS
Info: 4 ATOMS IN LARGEST MIGRATION GROUP
Info: TOTAL MASS = 158013 amu
Info: TOTAL CHARGE = -4 e
Info: MASS DENSITY = 1.02308 g/cm^3
Info: ATOM DENSITY = 0.101281 atoms/A^3
Info: ADDED 29822 IMPLICIT EXCLUSIONS
Info: NONBONDED TABLE R-SQUARED SPACING: 0.0625
Info: NONBONDED TABLE SIZE: 769 POINTS
Info: REMOVING COM VELOCITY -0.0244718 0.0089407 -0.0219796
Info: NONBONDED TABLE R-SQUARED SPACING: 0.0625
Info: NONBONDED TABLE SIZE: 769 POINTS
Info: READING EXTRA BONDS FILE 13/namdcph.sw.extrabonds
Info: LONG-RANGE LJ: APPLYING ANALYTICAL CORRECTIONS TO ENERGY AND PRESSURE
Info: LONG-RANGE LJ: AVERAGE A AND B COEFFICIENTS 71003.9 AND 74.6249
Info: STRUCTURE SUMMARY:
Info: 25964 ATOMS
Info: 17567 BONDS
Info: 9912 ANGLES
Info: 2278 DIHEDRALS
Info: 183 IMPROPERS
Info: 54 CROSSTERMS
Info: 0 EXCLUSIONS
Info: 25489 RIGID BONDS
Info: 52403 DEGREES OF FREEDOM
Info: 8824 HYDROGEN GROUPS
Info: 4 ATOMS IN LARGEST HYDROGEN GROUP
Info: 8824 MIGRATION GROUPS
Info: 4 ATOMS IN LARGEST MIGRATION GROUP
Info: TOTAL MASS = 157931 amu
Info: TOTAL CHARGE = -4 e
Info: MASS DENSITY = 1.02255 g/cm^3
Info: ATOM DENSITY = 0.101235 atoms/A^3
Info: ADDED 29751 IMPLICIT EXCLUSIONS
Info: NONBONDED TABLE R-SQUARED SPACING: 0.0625
Info: NONBONDED TABLE SIZE: 769 POINTS
Info: REMOVING COM VELOCITY -0.0249916 0.00897872 -0.0221739
Info: NONBONDED TABLE R-SQUARED SPACING: 0.0625
Info: NONBONDED TABLE SIZE: 769 POINTS
Info: READING EXTRA BONDS FILE 13/namdcph.sw.extrabonds
Info: READ 12 EXTRA BONDS
Info: To read alchdata from file: coordinate pdb file (default)
Info: To read alchflag data from column: 5
Info: LONG-RANGE LJ: APPLYING ANALYTICAL CORRECTIONS TO ENERGY AND PRESSURE
Info: LONG-RANGE LJ: AVERAGE A0 AND B0 COEFFICIENTS 71003.9 AND 74.6249
Info: LONG-RANGE LJ: AVERAGE A1 AND B1 COEFFICIENTS 71003.9 AND 74.6249
Info: STRUCTURE SUMMARY:
Info: 25976 ATOMS
Info: 17592 BONDS
Info: 9935 ANGLES
Info: 2317 DIHEDRALS
Info: 189 IMPROPERS
Info: 54 CROSSTERMS
Info: 0 EXCLUSIONS
Info: 25495 RIGID BONDS
Info: ALCH: 12 ATOMS TO DISAPPEAR IN FINAL STATE
Info: ALCH: 12 ATOMS TO APPEAR IN FINAL STATE
Info: ALCH: 6 DIHEDRALS LINKING INITIAL AND FINAL ATOMS DELETED
Info: 52433 DEGREES OF FREEDOM
Info: 8830 HYDROGEN GROUPS
Info: 4 ATOMS IN LARGEST HYDROGEN GROUP
Info: 8830 MIGRATION GROUPS
Info: 4 ATOMS IN LARGEST MIGRATION GROUP
Info: TOTAL MASS = 158013 amu
Info: TOTAL CHARGE = -4 e
Info: MASS DENSITY = 1.02308 g/cm^3
Info: ATOM DENSITY = 0.101281 atoms/A^3
Info: ADDED 29822 IMPLICIT EXCLUSIONS
Info: NONBONDED TABLE R-SQUARED SPACING: 0.0625
Info: NONBONDED TABLE SIZE: 769 POINTS
Info: REMOVING COM VELOCITY -0.00320015 0.0321526 0.0348542
Info: NONBONDED TABLE R-SQUARED SPACING: 0.0625
Info: NONBONDED TABLE SIZE: 769 POINTS
Info: READING EXTRA BONDS FILE 13/namdcph.sw.extrabonds
Info: LONG-RANGE LJ: APPLYING ANALYTICAL CORRECTIONS TO ENERGY AND PRESSURE
Info: LONG-RANGE LJ: AVERAGE A AND B COEFFICIENTS 71003.9 AND 74.6249
Info: STRUCTURE SUMMARY:
Info: 25964 ATOMS
Info: 17567 BONDS
Info: 9912 ANGLES
Info: 2278 DIHEDRALS
Info: 183 IMPROPERS
Info: 54 CROSSTERMS
Info: 0 EXCLUSIONS
Info: 25489 RIGID BONDS
Info: 52403 DEGREES OF FREEDOM
Info: 8824 HYDROGEN GROUPS
Info: 4 ATOMS IN LARGEST HYDROGEN GROUP
Info: 8824 MIGRATION GROUPS
Info: 4 ATOMS IN LARGEST MIGRATION GROUP
Info: TOTAL MASS = 157931 amu
Info: TOTAL CHARGE = -4 e
Info: MASS DENSITY = 1.02255 g/cm^3
Info: ATOM DENSITY = 0.101235 atoms/A^3
Info: ADDED 29751 IMPLICIT EXCLUSIONS
Info: NONBONDED TABLE R-SQUARED SPACING: 0.0625
Info: NONBONDED TABLE SIZE: 769 POINTS
Info: REMOVING COM VELOCITY -0.00257785 0.0321411 0.0355031
Info: NONBONDED TABLE R-SQUARED SPACING: 0.0625
Info: NONBONDED TABLE SIZE: 769 POINTS
Info: READING EXTRA BONDS FILE 13/namdcph.sw.extrabonds
Info: READ 12 EXTRA BONDS
Info: To read alchdata from file: coordinate pdb file (default)
Info: To read alchflag data from column: 5
Info: LONG-RANGE LJ: APPLYING ANALYTICAL CORRECTIONS TO ENERGY AND PRESSURE
Info: LONG-RANGE LJ: AVERAGE A0 AND B0 COEFFICIENTS 71003.9 AND 74.6249
Info: LONG-RANGE LJ: AVERAGE A1 AND B1 COEFFICIENTS 71003.9 AND 74.6249
Info: STRUCTURE SUMMARY:
Info: 25976 ATOMS
Info: 17592 BONDS
Info: 9935 ANGLES
Info: 2317 DIHEDRALS
Info: 189 IMPROPERS
Info: 54 CROSSTERMS
Info: 0 EXCLUSIONS
Info: 25495 RIGID BONDS
Info: ALCH: 12 ATOMS TO DISAPPEAR IN FINAL STATE
Info: ALCH: 12 ATOMS TO APPEAR IN FINAL STATE
Info: ALCH: 6 DIHEDRALS LINKING INITIAL AND FINAL ATOMS DELETED
Info: 52433 DEGREES OF FREEDOM
Info: 8830 HYDROGEN GROUPS
Info: 4 ATOMS IN LARGEST HYDROGEN GROUP
Info: 8830 MIGRATION GROUPS
Info: 4 ATOMS IN LARGEST MIGRATION GROUP
Info: TOTAL MASS = 158013 amu
Info: TOTAL CHARGE = -4 e
Info: MASS DENSITY = 1.02308 g/cm^3
Info: ATOM DENSITY = 0.101281 atoms/A^3
Info: ADDED 29822 IMPLICIT EXCLUSIONS
Info: NONBONDED TABLE R-SQUARED SPACING: 0.0625
Info: NONBONDED TABLE SIZE: 769 POINTS
Info: REMOVING COM VELOCITY 0.0237705 0.0223646 0.0340719
Info: NONBONDED TABLE R-SQUARED SPACING: 0.0625
Info: NONBONDED TABLE SIZE: 769 POINTS
Info: READING EXTRA BONDS FILE 13/namdcph.sw.extrabonds
Info: LONG-RANGE LJ: APPLYING ANALYTICAL CORRECTIONS TO ENERGY AND PRESSURE
Info: LONG-RANGE LJ: AVERAGE A AND B COEFFICIENTS 71003.9 AND 74.6249
Info: STRUCTURE SUMMARY:
Info: 25964 ATOMS
Info: 17567 BONDS
Info: 9912 ANGLES
Info: 2278 DIHEDRALS
Info: 183 IMPROPERS
Info: 54 CROSSTERMS
Info: 0 EXCLUSIONS
Info: 25489 RIGID BONDS
Info: 52403 DEGREES OF FREEDOM
Info: 8824 HYDROGEN GROUPS
Info: 4 ATOMS IN LARGEST HYDROGEN GROUP
Info: 8824 MIGRATION GROUPS
Info: 4 ATOMS IN LARGEST MIGRATION GROUP
Info: TOTAL MASS = 157931 amu
Info: TOTAL CHARGE = -4 e
Info: MASS DENSITY = 1.02255 g/cm^3
Info: ATOM DENSITY = 0.101235 atoms/A^3
Info: ADDED 29751 IMPLICIT EXCLUSIONS
Info: NONBONDED TABLE R-SQUARED SPACING: 0.0625
Info: NONBONDED TABLE SIZE: 769 POINTS
Info: REMOVING COM VELOCITY 0.0233763 0.0227536 0.0328641
Info: NONBONDED TABLE R-SQUARED SPACING: 0.0625
Info: NONBONDED TABLE SIZE: 769 POINTS
Info: READING EXTRA BONDS FILE 13/namdcph.sw.extrabonds
Info: READ 12 EXTRA BONDS
Info: To read alchdata from file: coordinate pdb file (default)
Info: To read alchflag data from column: 5
Info: LONG-RANGE LJ: APPLYING ANALYTICAL CORRECTIONS TO ENERGY AND PRESSURE
Info: LONG-RANGE LJ: AVERAGE A0 AND B0 COEFFICIENTS 71003.9 AND 74.6249
Info: LONG-RANGE LJ: AVERAGE A1 AND B1 COEFFICIENTS 71003.9 AND 74.6249
Info: STRUCTURE SUMMARY:
Info: 25976 ATOMS
Info: 17592 BONDS
Info: 9935 ANGLES
Info: 2317 DIHEDRALS
Info: 189 IMPROPERS
Info: 54 CROSSTERMS
Info: 0 EXCLUSIONS
Info: 25495 RIGID BONDS
Info: ALCH: 12 ATOMS TO DISAPPEAR IN FINAL STATE
Info: ALCH: 12 ATOMS TO APPEAR IN FINAL STATE
Info: ALCH: 6 DIHEDRALS LINKING INITIAL AND FINAL ATOMS DELETED
Info: 52433 DEGREES OF FREEDOM
Info: 8830 HYDROGEN GROUPS
Info: 4 ATOMS IN LARGEST HYDROGEN GROUP
Info: 8830 MIGRATION GROUPS
Info: 4 ATOMS IN LARGEST MIGRATION GROUP
Info: TOTAL MASS = 158013 amu
Info: TOTAL CHARGE = -4 e
Info: MASS DENSITY = 1.02308 g/cm^3
Info: ATOM DENSITY = 0.101281 atoms/A^3
Info: ADDED 29822 IMPLICIT EXCLUSIONS
Info: NONBONDED TABLE R-SQUARED SPACING: 0.0625
Info: NONBONDED TABLE SIZE: 769 POINTS
Info: REMOVING COM VELOCITY -0.0110015 -0.0115525 0.00518979
Info: NONBONDED TABLE R-SQUARED SPACING: 0.0625
Info: NONBONDED TABLE SIZE: 769 POINTS
Info: READING EXTRA BONDS FILE 13/namdcph.sw.extrabonds
Info: LONG-RANGE LJ: APPLYING ANALYTICAL CORRECTIONS TO ENERGY AND PRESSURE
Info: LONG-RANGE LJ: AVERAGE A AND B COEFFICIENTS 71003.9 AND 74.6249
Info: STRUCTURE SUMMARY:
Info: 25964 ATOMS
Info: 17567 BONDS
Info: 9912 ANGLES
Info: 2278 DIHEDRALS
Info: 183 IMPROPERS
Info: 54 CROSSTERMS
Info: 0 EXCLUSIONS
Info: 25489 RIGID BONDS
Info: 52403 DEGREES OF FREEDOM
Info: 8824 HYDROGEN GROUPS
Info: 4 ATOMS IN LARGEST HYDROGEN GROUP
Info: 8824 MIGRATION GROUPS
Info: 4 ATOMS IN LARGEST MIGRATION GROUP
Info: TOTAL MASS = 157931 amu
Info: TOTAL CHARGE = -4 e
Info: MASS DENSITY = 1.02255 g/cm^3
Info: ATOM DENSITY = 0.101235 atoms/A^3
Info: ADDED 29751 IMPLICIT EXCLUSIONS
Info: NONBONDED TABLE R-SQUARED SPACING: 0.0625
Info: NONBONDED TABLE SIZE: 769 POINTS
Info: REMOVING COM VELOCITY -0.0552968 0.0206583 0.06113
Info: NONBONDED TABLE R-SQUARED SPACING: 0.0625
Info: NONBONDED TABLE SIZE: 769 POINTS
Info: READING EXTRA BONDS FILE 13/namdcph.sw.extrabonds
Info: READ 12 EXTRA BONDS
Info: To read alchdata from file: coordinate pdb file (default)
Info: To read alchflag data from column: 5
Info: LONG-RANGE LJ: APPLYING ANALYTICAL CORRECTIONS TO ENERGY AND PRESSURE
Info: LONG-RANGE LJ: AVERAGE A0 AND B0 COEFFICIENTS 71003.9 AND 74.6249
Info: LONG-RANGE LJ: AVERAGE A1 AND B1 COEFFICIENTS 71003.9 AND 74.6249
Info: STRUCTURE SUMMARY:
Info: 25976 ATOMS
Info: 17592 BONDS
Info: 9935 ANGLES
Info: 2317 DIHEDRALS
Info: 189 IMPROPERS
Info: 54 CROSSTERMS
Info: 0 EXCLUSIONS
Info: 25495 RIGID BONDS
Info: ALCH: 12 ATOMS TO DISAPPEAR IN FINAL STATE
Info: ALCH: 12 ATOMS TO APPEAR IN FINAL STATE
Info: ALCH: 6 DIHEDRALS LINKING INITIAL AND FINAL ATOMS DELETED
Info: 52433 DEGREES OF FREEDOM
Info: 8830 HYDROGEN GROUPS
Info: 4 ATOMS IN LARGEST HYDROGEN GROUP
Info: 8830 MIGRATION GROUPS
Info: 4 ATOMS IN LARGEST MIGRATION GROUP
Info: TOTAL MASS = 158013 amu
Info: TOTAL CHARGE = -4 e
Info: MASS DENSITY = 1.02308 g/cm^3
Info: ATOM DENSITY = 0.101281 atoms/A^3
Info: ADDED 29822 IMPLICIT EXCLUSIONS
Info: NONBONDED TABLE R-SQUARED SPACING: 0.0625
Info: NONBONDED TABLE SIZE: 769 POINTS
Info: REMOVING COM VELOCITY -0.00110532 0.0353018 -0.0515099
Info: NONBONDED TABLE R-SQUARED SPACING: 0.0625
Info: NONBONDED TABLE SIZE: 769 POINTS
Info: READING EXTRA BONDS FILE 13/namdcph.sw.extrabonds
Info: LONG-RANGE LJ: APPLYING ANALYTICAL CORRECTIONS TO ENERGY AND PRESSURE
Info: LONG-RANGE LJ: AVERAGE A AND B COEFFICIENTS 71003.9 AND 74.6249
Info: STRUCTURE SUMMARY:
Info: 25964 ATOMS
Info: 17567 BONDS
Info: 9912 ANGLES
Info: 2278 DIHEDRALS
Info: 183 IMPROPERS
Info: 54 CROSSTERMS
Info: 0 EXCLUSIONS
Info: 25489 RIGID BONDS
Info: 52403 DEGREES OF FREEDOM
Info: 8824 HYDROGEN GROUPS
Info: 4 ATOMS IN LARGEST HYDROGEN GROUP
Info: 8824 MIGRATION GROUPS
Info: 4 ATOMS IN LARGEST MIGRATION GROUP
Info: TOTAL MASS = 157931 amu
Info: TOTAL CHARGE = -4 e
Info: MASS DENSITY = 1.02255 g/cm^3
Info: ATOM DENSITY = 0.101235 atoms/A^3
Info: ADDED 29751 IMPLICIT EXCLUSIONS
Info: NONBONDED TABLE R-SQUARED SPACING: 0.0625
Info: NONBONDED TABLE SIZE: 769 POINTS
Info: REMOVING COM VELOCITY -0.00832616 0.0171022 -0.0467282
Info: NONBONDED TABLE R-SQUARED SPACING: 0.0625
Info: NONBONDED TABLE SIZE: 769 POINTS
Info: READING EXTRA BONDS FILE 13/namdcph.sw.extrabonds
Info: READ 7 EXTRA BONDS
Info: To read alchdata from file: coordinate pdb file (default)
Info: To read alchflag data from column: 5
Info: LONG-RANGE LJ: APPLYING ANALYTICAL CORRECTIONS TO ENERGY AND PRESSURE
Info: LONG-RANGE LJ: AVERAGE A0 AND B0 COEFFICIENTS 71003.9 AND 74.6249
Info: LONG-RANGE LJ: AVERAGE A1 AND B1 COEFFICIENTS 70998.4 AND 74.6194
Info: STRUCTURE SUMMARY:
Info: 25971 ATOMS
Info: 17581 BONDS
Info: 9927 ANGLES
Info: 2299 DIHEDRALS
Info: 183 IMPROPERS
Info: 54 CROSSTERMS
Info: 0 EXCLUSIONS
Info: 25494 RIGID BONDS
Info: ALCH: 7 ATOMS TO DISAPPEAR IN FINAL STATE
Info: ALCH: 7 ATOMS TO APPEAR IN FINAL STATE
Info: ALCH: 1 ANGLES LINKING INITIAL AND FINAL ATOMS DELETED
Info: ALCH: 6 DIHEDRALS LINKING INITIAL AND FINAL ATOMS DELETED
Info: 52419 DEGREES OF FREEDOM
Info: 8826 HYDROGEN GROUPS
Info: 4 ATOMS IN LARGEST HYDROGEN GROUP
Info: 8826 MIGRATION GROUPS
Info: 4 ATOMS IN LARGEST MIGRATION GROUP
Info: TOTAL MASS = 157962 amu
Info: TOTAL CHARGE = -3 e
Info: MASS DENSITY = 1.02275 g/cm^3
Info: ATOM DENSITY = 0.101262 atoms/A^3
Info: ADDED 29794 IMPLICIT EXCLUSIONS
Info: NONBONDED TABLE R-SQUARED SPACING: 0.0625
Info: NONBONDED TABLE SIZE: 769 POINTS
Info: REMOVING COM VELOCITY 0.0624983 -0.0268117 -0.0933976
Info: NONBONDED TABLE R-SQUARED SPACING: 0.0625
Info: NONBONDED TABLE SIZE: 769 POINTS
Info: READING EXTRA BONDS FILE 13/namdcph.sw.extrabonds
Info: LONG-RANGE LJ: APPLYING ANALYTICAL CORRECTIONS TO ENERGY AND PRESSURE
Info: LONG-RANGE LJ: AVERAGE A AND B COEFFICIENTS 71003.9 AND 74.6249
Info: STRUCTURE SUMMARY:
Info: 25964 ATOMS
Info: 17567 BONDS
Info: 9912 ANGLES
Info: 2278 DIHEDRALS
Info: 183 IMPROPERS
Info: 54 CROSSTERMS
Info: 0 EXCLUSIONS
Info: 25489 RIGID BONDS
Info: 52403 DEGREES OF FREEDOM
Info: 8824 HYDROGEN GROUPS
Info: 4 ATOMS IN LARGEST HYDROGEN GROUP
Info: 8824 MIGRATION GROUPS
Info: 4 ATOMS IN LARGEST MIGRATION GROUP
Info: TOTAL MASS = 157931 amu
Info: TOTAL CHARGE = -4 e
Info: MASS DENSITY = 1.02255 g/cm^3
Info: ATOM DENSITY = 0.101235 atoms/A^3
Info: ADDED 29751 IMPLICIT EXCLUSIONS
Info: NONBONDED TABLE R-SQUARED SPACING: 0.0625
Info: NONBONDED TABLE SIZE: 769 POINTS
Info: REMOVING COM VELOCITY 0.0633132 -0.0269859 -0.0934237
Info: NONBONDED TABLE R-SQUARED SPACING: 0.0625
Info: NONBONDED TABLE SIZE: 769 POINTS
Info: READING EXTRA BONDS FILE 13/namdcph.sw.extrabonds
Info: READ 12 EXTRA BONDS
Info: To read alchdata from file: coordinate pdb file (default)
Info: To read alchflag data from column: 5
Info: LONG-RANGE LJ: APPLYING ANALYTICAL CORRECTIONS TO ENERGY AND PRESSURE
Info: LONG-RANGE LJ: AVERAGE A0 AND B0 COEFFICIENTS 71003.9 AND 74.6249
Info: LONG-RANGE LJ: AVERAGE A1 AND B1 COEFFICIENTS 71003.9 AND 74.6249
Info: STRUCTURE SUMMARY:
Info: 25976 ATOMS
Info: 17592 BONDS
Info: 9935 ANGLES
Info: 2317 DIHEDRALS
Info: 189 IMPROPERS
Info: 54 CROSSTERMS
Info: 0 EXCLUSIONS
Info: 25495 RIGID BONDS
Info: ALCH: 12 ATOMS TO DISAPPEAR IN FINAL STATE
Info: ALCH: 12 ATOMS TO APPEAR IN FINAL STATE
Info: ALCH: 6 DIHEDRALS LINKING INITIAL AND FINAL ATOMS DELETED
Info: 52433 DEGREES OF FREEDOM
Info: 8830 HYDROGEN GROUPS
Info: 4 ATOMS IN LARGEST HYDROGEN GROUP
Info: 8830 MIGRATION GROUPS
Info: 4 ATOMS IN LARGEST MIGRATION GROUP
Info: TOTAL MASS = 158013 amu
Info: TOTAL CHARGE = -4 e
Info: MASS DENSITY = 1.02308 g/cm^3
Info: ATOM DENSITY = 0.101281 atoms/A^3
Info: ADDED 29822 IMPLICIT EXCLUSIONS
Info: NONBONDED TABLE R-SQUARED SPACING: 0.0625
Info: NONBONDED TABLE SIZE: 769 POINTS
Info: REMOVING COM VELOCITY -0.0384902 0.00729111 -0.0173498
Info: NONBONDED TABLE R-SQUARED SPACING: 0.0625
Info: NONBONDED TABLE SIZE: 769 POINTS
Info: READING EXTRA BONDS FILE 13/namdcph.sw.extrabonds
Info: LONG-RANGE LJ: APPLYING ANALYTICAL CORRECTIONS TO ENERGY AND PRESSURE
Info: LONG-RANGE LJ: AVERAGE A AND B COEFFICIENTS 71003.9 AND 74.6249
Info: STRUCTURE SUMMARY:
Info: 25964 ATOMS
Info: 17567 BONDS
Info: 9912 ANGLES
Info: 2278 DIHEDRALS
Info: 183 IMPROPERS
Info: 54 CROSSTERMS
Info: 0 EXCLUSIONS
Info: 25489 RIGID BONDS
Info: 52403 DEGREES OF FREEDOM
Info: 8824 HYDROGEN GROUPS
Info: 4 ATOMS IN LARGEST HYDROGEN GROUP
Info: 8824 MIGRATION GROUPS
Info: 4 ATOMS IN LARGEST MIGRATION GROUP
Info: TOTAL MASS = 157931 amu
Info: TOTAL CHARGE = -4 e
Info: MASS DENSITY = 1.02255 g/cm^3
Info: ATOM DENSITY = 0.101235 atoms/A^3
Info: ADDED 29751 IMPLICIT EXCLUSIONS
Info: NONBONDED TABLE R-SQUARED SPACING: 0.0625
Info: NONBONDED TABLE SIZE: 769 POINTS
Info: REMOVING COM VELOCITY 0.0468402 -0.0494264 0.00808814
Info: NONBONDED TABLE R-SQUARED SPACING: 0.0625
Info: NONBONDED TABLE SIZE: 769 POINTS
Info: READING EXTRA BONDS FILE 13/namdcph.sw.extrabonds
Info: READ 12 EXTRA BONDS
Info: To read alchdata from file: coordinate pdb file (default)
Info: To read alchflag data from column: 5
Info: LONG-RANGE LJ: APPLYING ANALYTICAL CORRECTIONS TO ENERGY AND PRESSURE
Info: LONG-RANGE LJ: AVERAGE A0 AND B0 COEFFICIENTS 71003.9 AND 74.6249
Info: LONG-RANGE LJ: AVERAGE A1 AND B1 COEFFICIENTS 71003.9 AND 74.6249
Info: STRUCTURE SUMMARY:
Info: 25976 ATOMS
Info: 17592 BONDS
Info: 9935 ANGLES
Info: 2317 DIHEDRALS
Info: 189 IMPROPERS
Info: 54 CROSSTERMS
Info: 0 EXCLUSIONS
Info: 25495 RIGID BONDS
Info: ALCH: 12 ATOMS TO DISAPPEAR IN FINAL STATE
Info: ALCH: 12 ATOMS TO APPEAR IN FINAL STATE
Info: ALCH: 6 DIHEDRALS LINKING INITIAL AND FINAL ATOMS DELETED
Info: 52433 DEGREES OF FREEDOM
Info: 8830 HYDROGEN GROUPS
Info: 4 ATOMS IN LARGEST HYDROGEN GROUP
Info: 8830 MIGRATION GROUPS
Info: 4 ATOMS IN LARGEST MIGRATION GROUP
Info: TOTAL MASS = 158013 amu
Info: TOTAL CHARGE = -4 e
Info: MASS DENSITY = 1.02308 g/cm^3
Info: ATOM DENSITY = 0.101281 atoms/A^3
Info: ADDED 29822 IMPLICIT EXCLUSIONS
Info: NONBONDED TABLE R-SQUARED SPACING: 0.0625
Info: NONBONDED TABLE SIZE: 769 POINTS
Info: REMOVING COM VELOCITY -0.00580963 0.053415 0.000924603
Info: NONBONDED TABLE R-SQUARED SPACING: 0.0625
Info: NONBONDED TABLE SIZE: 769 POINTS
Info: READING EXTRA BONDS FILE 13/namdcph.sw.extrabonds
Info: LONG-RANGE LJ: APPLYING ANALYTICAL CORRECTIONS TO ENERGY AND PRESSURE
Info: LONG-RANGE LJ: AVERAGE A AND B COEFFICIENTS 71003.9 AND 74.6249
Info: STRUCTURE SUMMARY:
Info: 25964 ATOMS
Info: 17567 BONDS
Info: 9912 ANGLES
Info: 2278 DIHEDRALS
Info: 183 IMPROPERS
Info: 54 CROSSTERMS
Info: 0 EXCLUSIONS
Info: 25489 RIGID BONDS
Info: 52403 DEGREES OF FREEDOM
Info: 8824 HYDROGEN GROUPS
Info: 4 ATOMS IN LARGEST HYDROGEN GROUP
Info: 8824 MIGRATION GROUPS
Info: 4 ATOMS IN LARGEST MIGRATION GROUP
Info: TOTAL MASS = 157931 amu
Info: TOTAL CHARGE = -4 e
Info: MASS DENSITY = 1.02255 g/cm^3
Info: ATOM DENSITY = 0.101235 atoms/A^3
Info: ADDED 29751 IMPLICIT EXCLUSIONS
Info: NONBONDED TABLE R-SQUARED SPACING: 0.0625
Info: NONBONDED TABLE SIZE: 769 POINTS
Info: REMOVING COM VELOCITY -0.00560972 0.0530544 0.00118469
Info: NONBONDED TABLE R-SQUARED SPACING: 0.0625
Info: NONBONDED TABLE SIZE: 769 POINTS
Info: READING EXTRA BONDS FILE 13/namdcph.sw.extrabonds
Info: READ 12 EXTRA BONDS
Info: To read alchdata from file: coordinate pdb file (default)
Info: To read alchflag data from column: 5
Info: LONG-RANGE LJ: APPLYING ANALYTICAL CORRECTIONS TO ENERGY AND PRESSURE
Info: LONG-RANGE LJ: AVERAGE A0 AND B0 COEFFICIENTS 71003.9 AND 74.6249
Info: LONG-RANGE LJ: AVERAGE A1 AND B1 COEFFICIENTS 71003.9 AND 74.6249
Info: STRUCTURE SUMMARY:
Info: 25976 ATOMS
Info: 17592 BONDS
Info: 9935 ANGLES
Info: 2317 DIHEDRALS
Info: 189 IMPROPERS
Info: 54 CROSSTERMS
Info: 0 EXCLUSIONS
Info: 25495 RIGID BONDS
Info: ALCH: 12 ATOMS TO DISAPPEAR IN FINAL STATE
Info: ALCH: 12 ATOMS TO APPEAR IN FINAL STATE
Info: ALCH: 6 DIHEDRALS LINKING INITIAL AND FINAL ATOMS DELETED
Info: 52433 DEGREES OF FREEDOM
Info: 8830 HYDROGEN GROUPS
Info: 4 ATOMS IN LARGEST HYDROGEN GROUP
Info: 8830 MIGRATION GROUPS
Info: 4 ATOMS IN LARGEST MIGRATION GROUP
Info: TOTAL MASS = 158013 amu
Info: TOTAL CHARGE = -4 e
Info: MASS DENSITY = 1.02308 g/cm^3
Info: ATOM DENSITY = 0.101281 atoms/A^3
Info: ADDED 29822 IMPLICIT EXCLUSIONS
Info: NONBONDED TABLE R-SQUARED SPACING: 0.0625
Info: NONBONDED TABLE SIZE: 769 POINTS
Info: REMOVING COM VELOCITY -0.0515947 0.0468106 -0.0222689
Info: NONBONDED TABLE R-SQUARED SPACING: 0.0625
Info: NONBONDED TABLE SIZE: 769 POINTS
Info: READING EXTRA BONDS FILE 13/namdcph.sw.extrabonds
Info: LONG-RANGE LJ: APPLYING ANALYTICAL CORRECTIONS TO ENERGY AND PRESSURE
Info: LONG-RANGE LJ: AVERAGE A AND B COEFFICIENTS 71003.9 AND 74.6249
Info: STRUCTURE SUMMARY:
Info: 25964 ATOMS
Info: 17567 BONDS
Info: 9912 ANGLES
Info: 2278 DIHEDRALS
Info: 183 IMPROPERS
Info: 54 CROSSTERMS
Info: 0 EXCLUSIONS
Info: 25489 RIGID BONDS
Info: 52403 DEGREES OF FREEDOM
Info: 8824 HYDROGEN GROUPS
Info: 4 ATOMS IN LARGEST HYDROGEN GROUP
Info: 8824 MIGRATION GROUPS
Info: 4 ATOMS IN LARGEST MIGRATION GROUP
Info: TOTAL MASS = 157931 amu
Info: TOTAL CHARGE = -4 e
Info: MASS DENSITY = 1.02255 g/cm^3
Info: ATOM DENSITY = 0.101235 atoms/A^3
Info: ADDED 29751 IMPLICIT EXCLUSIONS
Info: NONBONDED TABLE R-SQUARED SPACING: 0.0625
Info: NONBONDED TABLE SIZE: 769 POINTS
Info: REMOVING COM VELOCITY -0.0528362 0.0305292 -0.0240891
Info: NONBONDED TABLE R-SQUARED SPACING: 0.0625
Info: NONBONDED TABLE SIZE: 769 POINTS
Info: READING EXTRA BONDS FILE 13/namdcph.sw.extrabonds
Info: READ 12 EXTRA BONDS
Info: To read alchdata from file: coordinate pdb file (default)
Info: To read alchflag data from column: 5
Info: LONG-RANGE LJ: APPLYING ANALYTICAL CORRECTIONS TO ENERGY AND PRESSURE
Info: LONG-RANGE LJ: AVERAGE A0 AND B0 COEFFICIENTS 71003.9 AND 74.6249
Info: LONG-RANGE LJ: AVERAGE A1 AND B1 COEFFICIENTS 71003.9 AND 74.6249
Info: STRUCTURE SUMMARY:
Info: 25976 ATOMS
Info: 17592 BONDS
Info: 9935 ANGLES
Info: 2317 DIHEDRALS
Info: 189 IMPROPERS
Info: 54 CROSSTERMS
Info: 0 EXCLUSIONS
Info: 25495 RIGID BONDS
Info: ALCH: 12 ATOMS TO DISAPPEAR IN FINAL STATE
Info: ALCH: 12 ATOMS TO APPEAR IN FINAL STATE
Info: ALCH: 6 DIHEDRALS LINKING INITIAL AND FINAL ATOMS DELETED
Info: 52433 DEGREES OF FREEDOM
Info: 8830 HYDROGEN GROUPS
Info: 4 ATOMS IN LARGEST HYDROGEN GROUP
Info: 8830 MIGRATION GROUPS
Info: 4 ATOMS IN LARGEST MIGRATION GROUP
Info: TOTAL MASS = 158013 amu
Info: TOTAL CHARGE = -4 e
Info: MASS DENSITY = 1.02308 g/cm^3
Info: ATOM DENSITY = 0.101281 atoms/A^3
Info: ADDED 29822 IMPLICIT EXCLUSIONS
Info: NONBONDED TABLE R-SQUARED SPACING: 0.0625
Info: NONBONDED TABLE SIZE: 769 POINTS
Info: REMOVING COM VELOCITY -0.0308515 -0.0709174 -0.0267892
Info: NONBONDED TABLE R-SQUARED SPACING: 0.0625
Info: NONBONDED TABLE SIZE: 769 POINTS
Info: READING EXTRA BONDS FILE 13/namdcph.sw.extrabonds
Info: LONG-RANGE LJ: APPLYING ANALYTICAL CORRECTIONS TO ENERGY AND PRESSURE
Info: LONG-RANGE LJ: AVERAGE A AND B COEFFICIENTS 71003.9 AND 74.6249
Info: STRUCTURE SUMMARY:
Info: 25964 ATOMS
Info: 17567 BONDS
Info: 9912 ANGLES
Info: 2278 DIHEDRALS
Info: 183 IMPROPERS
Info: 54 CROSSTERMS
Info: 0 EXCLUSIONS
Info: 25489 RIGID BONDS
Info: 52403 DEGREES OF FREEDOM
Info: 8824 HYDROGEN GROUPS
Info: 4 ATOMS IN LARGEST HYDROGEN GROUP
Info: 8824 MIGRATION GROUPS
Info: 4 ATOMS IN LARGEST MIGRATION GROUP
Info: TOTAL MASS = 157931 amu
Info: TOTAL CHARGE = -4 e
Info: MASS DENSITY = 1.02255 g/cm^3
Info: ATOM DENSITY = 0.101235 atoms/A^3
Info: ADDED 29751 IMPLICIT EXCLUSIONS
Info: NONBONDED TABLE R-SQUARED SPACING: 0.0625
Info: NONBONDED TABLE SIZE: 769 POINTS
Info: REMOVING COM VELOCITY 0.0199781 0.0248761 -0.0366639
Info: NONBONDED TABLE R-SQUARED SPACING: 0.0625
Info: NONBONDED TABLE SIZE: 769 POINTS
Info: READING EXTRA BONDS FILE 13/namdcph.sw.extrabonds
Info: READ 12 EXTRA BONDS
Info: To read alchdata from file: coordinate pdb file (default)
Info: To read alchflag data from column: 5
Info: LONG-RANGE LJ: APPLYING ANALYTICAL CORRECTIONS TO ENERGY AND PRESSURE
Info: LONG-RANGE LJ: AVERAGE A0 AND B0 COEFFICIENTS 71003.9 AND 74.6249
Info: LONG-RANGE LJ: AVERAGE A1 AND B1 COEFFICIENTS 71003.9 AND 74.6249
Info: STRUCTURE SUMMARY:
Info: 25976 ATOMS
Info: 17592 BONDS
Info: 9935 ANGLES
Info: 2317 DIHEDRALS
Info: 189 IMPROPERS
Info: 54 CROSSTERMS
Info: 0 EXCLUSIONS
Info: 25495 RIGID BONDS
Info: ALCH: 12 ATOMS TO DISAPPEAR IN FINAL STATE
Info: ALCH: 12 ATOMS TO APPEAR IN FINAL STATE
Info: ALCH: 6 DIHEDRALS LINKING INITIAL AND FINAL ATOMS DELETED
Info: 52433 DEGREES OF FREEDOM
Info: 8830 HYDROGEN GROUPS
Info: 4 ATOMS IN LARGEST HYDROGEN GROUP
Info: 8830 MIGRATION GROUPS
Info: 4 ATOMS IN LARGEST MIGRATION GROUP
Info: TOTAL MASS = 158013 amu
Info: TOTAL CHARGE = -4 e
Info: MASS DENSITY = 1.02308 g/cm^3
Info: ATOM DENSITY = 0.101281 atoms/A^3
Info: ADDED 29822 IMPLICIT EXCLUSIONS
Info: NONBONDED TABLE R-SQUARED SPACING: 0.0625
Info: NONBONDED TABLE SIZE: 769 POINTS
Info: REMOVING COM VELOCITY 0.0244844 -0.0109208 0.0259957
Info: NONBONDED TABLE R-SQUARED SPACING: 0.0625
Info: NONBONDED TABLE SIZE: 769 POINTS
Info: READING EXTRA BONDS FILE 13/namdcph.sw.extrabonds
Info: LONG-RANGE LJ: APPLYING ANALYTICAL CORRECTIONS TO ENERGY AND PRESSURE
Info: LONG-RANGE LJ: AVERAGE A AND B COEFFICIENTS 71003.9 AND 74.6249
Info: STRUCTURE SUMMARY:
Info: 25964 ATOMS
Info: 17567 BONDS
Info: 9912 ANGLES
Info: 2278 DIHEDRALS
Info: 183 IMPROPERS
Info: 54 CROSSTERMS
Info: 0 EXCLUSIONS
Info: 25489 RIGID BONDS
Info: 52403 DEGREES OF FREEDOM
Info: 8824 HYDROGEN GROUPS
Info: 4 ATOMS IN LARGEST HYDROGEN GROUP
Info: 8824 MIGRATION GROUPS
Info: 4 ATOMS IN LARGEST MIGRATION GROUP
Info: TOTAL MASS = 157931 amu
Info: TOTAL CHARGE = -4 e
Info: MASS DENSITY = 1.02255 g/cm^3
Info: ATOM DENSITY = 0.101235 atoms/A^3
Info: ADDED 29751 IMPLICIT EXCLUSIONS
Info: NONBONDED TABLE R-SQUARED SPACING: 0.0625
Info: NONBONDED TABLE SIZE: 769 POINTS
Info: REMOVING COM VELOCITY -0.0187133 0.0494535 -0.0135143
Info: NONBONDED TABLE R-SQUARED SPACING: 0.0625
Info: NONBONDED TABLE SIZE: 769 POINTS
Info: READING EXTRA BONDS FILE 13/namdcph.sw.extrabonds
Info: READ 12 EXTRA BONDS
Info: To read alchdata from file: coordinate pdb file (default)
Info: To read alchflag data from column: 5
Info: LONG-RANGE LJ: APPLYING ANALYTICAL CORRECTIONS TO ENERGY AND PRESSURE
Info: LONG-RANGE LJ: AVERAGE A0 AND B0 COEFFICIENTS 71003.9 AND 74.6249
Info: LONG-RANGE LJ: AVERAGE A1 AND B1 COEFFICIENTS 71003.9 AND 74.6249
Info: STRUCTURE SUMMARY:
Info: 25976 ATOMS
Info: 17592 BONDS
Info: 9935 ANGLES
Info: 2317 DIHEDRALS
Info: 189 IMPROPERS
Info: 54 CROSSTERMS
Info: 0 EXCLUSIONS
Info: 25495 RIGID BONDS
Info: ALCH: 12 ATOMS TO DISAPPEAR IN FINAL STATE
Info: ALCH: 12 ATOMS TO APPEAR IN FINAL STATE
Info: ALCH: 6 DIHEDRALS LINKING INITIAL AND FINAL ATOMS DELETED
Info: 52433 DEGREES OF FREEDOM
Info: 8830 HYDROGEN GROUPS
Info: 4 ATOMS IN LARGEST HYDROGEN GROUP
Info: 8830 MIGRATION GROUPS
Info: 4 ATOMS IN LARGEST MIGRATION GROUP
Info: TOTAL MASS = 158013 amu
Info: TOTAL CHARGE = -4 e
Info: MASS DENSITY = 1.02308 g/cm^3
Info: ATOM DENSITY = 0.101281 atoms/A^3
Info: ADDED 29822 IMPLICIT EXCLUSIONS
Info: NONBONDED TABLE R-SQUARED SPACING: 0.0625
Info: NONBONDED TABLE SIZE: 769 POINTS
Info: REMOVING COM VELOCITY 0.0454251 0.0268065 0.0132016
Info: NONBONDED TABLE R-SQUARED SPACING: 0.0625
Info: NONBONDED TABLE SIZE: 769 POINTS
Info: READING EXTRA BONDS FILE 13/namdcph.sw.extrabonds
Info: LONG-RANGE LJ: APPLYING ANALYTICAL CORRECTIONS TO ENERGY AND PRESSURE
Info: LONG-RANGE LJ: AVERAGE A AND B COEFFICIENTS 71003.9 AND 74.6249
Info: STRUCTURE SUMMARY:
Info: 25964 ATOMS
Info: 17567 BONDS
Info: 9912 ANGLES
Info: 2278 DIHEDRALS
Info: 183 IMPROPERS
Info: 54 CROSSTERMS
Info: 0 EXCLUSIONS
Info: 25489 RIGID BONDS
Info: 52403 DEGREES OF FREEDOM
Info: 8824 HYDROGEN GROUPS
Info: 4 ATOMS IN LARGEST HYDROGEN GROUP
Info: 8824 MIGRATION GROUPS
Info: 4 ATOMS IN LARGEST MIGRATION GROUP
Info: TOTAL MASS = 157931 amu
Info: TOTAL CHARGE = -4 e
Info: MASS DENSITY = 1.02255 g/cm^3
Info: ATOM DENSITY = 0.101235 atoms/A^3
Info: ADDED 29751 IMPLICIT EXCLUSIONS
Info: NONBONDED TABLE R-SQUARED SPACING: 0.0625
Info: NONBONDED TABLE SIZE: 769 POINTS
Info: REMOVING COM VELOCITY 0.0442208 0.0266326 0.0134844
